
  EPA STORM WATER MANAGEMENT MODEL - VERSION 5.0 (Build 5.0.014)
  --------------------------------------------------------------

  Beispiel ATV-A 128 
  TU Darmstadt 
  ihwb 
  
  *********************************************************
  NOTE: The summary statistics displayed in this report are
  based on results found at every computational time step,  
  not just on results from each reporting time step.
  *********************************************************
  
  ****************
  Analysis Options
  ****************
  Flow Units ............... LPS
  Process Models:
    Rainfall/Runoff ........ NO
    Snowmelt ............... NO
    Groundwater ............ NO
    Flow Routing ........... YES
    Water Quality .......... NO
  Flow Routing Method ...... DYNWAVE
  Starting Date ............ JUN-10-2001 12:00:00
  Ending Date .............. JUN-17-2001 00:00:00
  Antecedent Dry Days ...... 0.0
  Report Time Step ......... 00:01:00
  Routing Time Step ........ 1.00 sec
  
  WARNING 05: minimum elevation drop used for Conduit RUE1
  WARNING 05: minimum elevation drop used for Conduit RUE2
  
  ERROR 351: cannot open routing interface file d:\data\develop\devtest\swmm\A128_rbc\Qzu_A128.txt.
  
  *********************
  Control Actions Taken
  *********************


  Analysis begun on:  Sat Feb 25 09:47:37 2023
  Analysis ended on:  Sat Feb 25 09:47:37 2023
  Total elapsed time: < 1 sec