
  EPA STORM WATER MANAGEMENT MODEL - VERSION 5.0 (Build 5.0.014)
  --------------------------------------------------------------

  Beispiel ATV-A 128 
  TU Darmstadt 
  ihwb 
  
  *********************************************************
  NOTE: The summary statistics displayed in this report are
  based on results found at every computational time step,  
  not just on results from each reporting time step.
  *********************************************************
  
  ****************
  Analysis Options
  ****************
  Flow Units ............... LPS
  Process Models:
    Rainfall/Runoff ........ NO
    Snowmelt ............... NO
    Groundwater ............ NO
    Flow Routing ........... YES
    Water Quality .......... NO
  Flow Routing Method ...... DYNWAVE
  Starting Date ............ JUN-10-2001 12:00:00
  Ending Date .............. JUN-17-2001 00:00:00
  Antecedent Dry Days ...... 0.0
  Report Time Step ......... 00:01:00
  Routing Time Step ........ 1.00 sec
  
  WARNING 05: minimum elevation drop used for Conduit RUE1
  WARNING 05: minimum elevation drop used for Conduit RUE2
  
  *********************
  Control Actions Taken
  *********************
  JUN-10-2001: 16:29:17 Link FB setting changed to   4.00 by Control FB_01
  JUN-10-2001: 18:36:32 Link FB setting changed to   1.00 by Control FB_02
  JUN-11-2001: 16:12:02 Link RRB setting changed to   4.00 by Control RRB_01
  JUN-11-2001: 16:28:50 Link FB setting changed to   4.00 by Control FB_01
  JUN-11-2001: 17:05:36 Link RRB setting changed to   1.00 by Control RRB_02
  JUN-11-2001: 19:49:38 Link FB setting changed to   1.00 by Control FB_02
  JUN-12-2001: 03:07:15 Link RRB setting changed to   4.00 by Control RRB_01
  JUN-12-2001: 03:11:39 Link RRB setting changed to   1.00 by Control RRB_02
  JUN-12-2001: 03:16:13 Link RRB setting changed to   4.00 by Control RRB_01
  JUN-12-2001: 03:19:16 Link RRB setting changed to   1.00 by Control RRB_02
  JUN-12-2001: 03:27:26 Link RRB setting changed to   4.00 by Control RRB_01
  JUN-12-2001: 03:29:54 Link RRB setting changed to   1.00 by Control RRB_02
  JUN-12-2001: 03:38:36 Link RRB setting changed to   4.00 by Control RRB_01
  JUN-12-2001: 04:27:53 Link RRB setting changed to   1.00 by Control RRB_02
  JUN-12-2001: 16:50:18 Link FB setting changed to   4.00 by Control FB_01
  JUN-12-2001: 17:01:34 Link RRB setting changed to   4.00 by Control RRB_01
  JUN-12-2001: 18:16:22 Link RRB setting changed to   1.00 by Control RRB_02
  JUN-12-2001: 18:28:26 Link FB setting changed to   1.00 by Control FB_02
  JUN-14-2001: 13:04:49 Link FB setting changed to   4.00 by Control FB_01
  JUN-14-2001: 14:17:36 Link RRB setting changed to   4.00 by Control RRB_01
  JUN-14-2001: 14:42:23 Link FB setting changed to   1.00 by Control FB_02
  JUN-14-2001: 14:48:46 Link FB setting changed to   4.00 by Control FB_01
  JUN-14-2001: 14:55:43 Link FB setting changed to   1.00 by Control FB_02
  JUN-14-2001: 15:04:49 Link FB setting changed to   4.00 by Control FB_01
  JUN-14-2001: 15:13:11 Link FB setting changed to   1.00 by Control FB_02
  JUN-14-2001: 15:17:31 Link FB setting changed to   4.00 by Control FB_01
  JUN-14-2001: 17:17:32 Link RRB setting changed to   1.00 by Control RRB_02
  JUN-14-2001: 17:38:52 Link FB setting changed to   1.00 by Control FB_02
  JUN-15-2001: 18:32:44 Link RRB setting changed to   4.00 by Control RRB_01
  JUN-15-2001: 18:46:09 Link RRB setting changed to   1.00 by Control RRB_02
  JUN-15-2001: 18:51:01 Link RRB setting changed to   4.00 by Control RRB_01
  JUN-15-2001: 18:53:46 Link RRB setting changed to   1.00 by Control RRB_02
  JUN-15-2001: 19:09:13 Link RRB setting changed to   4.00 by Control RRB_01
  JUN-15-2001: 20:03:20 Link RRB setting changed to   1.00 by Control RRB_02
  JUN-16-2001: 13:18:53 Link RRB setting changed to   4.00 by Control RRB_01
  JUN-16-2001: 13:36:07 Link RRB setting changed to   1.00 by Control RRB_02
  JUN-16-2001: 13:39:21 Link RRB setting changed to   4.00 by Control RRB_01
  JUN-16-2001: 13:43:19 Link RRB setting changed to   1.00 by Control RRB_02
  JUN-16-2001: 13:49:16 Link RRB setting changed to   4.00 by Control RRB_01
  JUN-16-2001: 13:51:50 Link RRB setting changed to   1.00 by Control RRB_02
  JUN-16-2001: 16:39:50 Link FB setting changed to   4.00 by Control FB_01
  JUN-16-2001: 16:45:53 Link FB setting changed to   1.00 by Control FB_02
  JUN-16-2001: 18:35:29 Link FB setting changed to   4.00 by Control FB_01
  JUN-16-2001: 18:51:06 Link FB setting changed to   1.00 by Control FB_02

  
  **************************        Volume        Volume
  Flow Routing Continuity        hectare-m      10^6 ltr
  **************************     ---------     ---------
  Dry Weather Inflow .......         0.000         0.000
  Wet Weather Inflow .......         0.000         0.000
  Groundwater Inflow .......         0.000         0.000
  RDII Inflow ..............         0.000         0.000
  External Inflow ..........         4.979        49.793
  External Outflow .........         4.985        49.849
  Internal Outflow .........         0.000         0.000
  Evaporation Loss .........         0.000         0.000
  Initial Stored Volume ....         0.010         0.102
  Final Stored Volume ......         0.005         0.049
  Continuity Error (%) .....        -0.007
  
  
  ***************************
  Time-Step Critical Elements
  ***************************
  None
  
  
  ********************************
  Highest Flow Instability Indexes
  ********************************
  All links are stable.
  
  
  *************************
  Routing Time Step Summary
  *************************
  Minimum Time Step           :     0.95 sec
  Average Time Step           :     1.00 sec
  Maximum Time Step           :     1.00 sec
  Percent in Steady State     :     0.00
  Average Iterations per Step :     2.00
  
  
  ******************
  Node Depth Summary
  ******************
  
  ---------------------------------------------------------------------
                                 Average  Maximum  Maximum  Time of Max
                                   Depth    Depth      HGL   Occurrence
  Node                 Type       Meters   Meters   Meters  days hr:min
  ---------------------------------------------------------------------
  S102                 JUNCTION     0.07     0.23   110.24     5  06:42
  S601                 JUNCTION     0.10     0.34   106.35     2  05:19
  S203                 JUNCTION     0.04     0.78   107.27     2  05:03
  RUE2                 JUNCTION     0.04     0.64   106.85     2  05:03
  S101                 JUNCTION     0.06     0.35   110.96     4  03:42
  RUE1                 JUNCTION     0.04     0.67   107.76     2  05:00
  S201                 JUNCTION     0.03     1.73   109.32     2  05:00
  S602                 JUNCTION     0.14     0.70   102.84     2  05:31
  S202                 JUNCTION     0.04     0.65   107.74     2  05:04
  RUE1Ra               JUNCTION     0.00     0.44   107.53     2  05:00
  DBKu                 JUNCTION     0.01     0.74    99.74     2  05:49
  RRBRa                JUNCTION     0.00     0.26   109.27     4  03:42
  S301                 JUNCTION     0.04     0.26   106.47     2  05:18
  RUE2Ra               JUNCTION     0.00     0.28   106.49     2  05:03
  S401                 JUNCTION     0.05     0.48   107.44     2  04:57
  FBRa                 JUNCTION     0.00     0.41   106.02     2  04:54
  S402                 JUNCTION     0.04     0.14   106.75     2  04:50
  S701                 JUNCTION     0.20     0.27   100.67     2  05:01
  DBBu                 JUNCTION     0.01     0.37    99.37     2  05:47
  DBAus                JUNCTION     0.01     0.48    99.38     2  05:49
  RRBAus               OUTFALL      0.00     0.26   108.77     4  03:42
  RUE1Ra1              OUTFALL      0.00     0.43   106.52     2  05:00
  RUE2Ra1              OUTFALL      0.00     0.28   105.49     2  05:03
  KLA                  OUTFALL      0.18     0.23   100.23     2  05:02
  FBRa1                OUTFALL      0.00     0.41   105.02     2  04:58
  DBAus2               OUTFALL      0.01     0.48    98.98     2  05:50
  RRB                  STORAGE      0.20     2.66   110.17     4  03:42
  FB                   STORAGE      0.23     2.24   106.35     2  04:58
  DB                   STORAGE      0.98     4.40    99.80     2  05:49
  
  
  *******************
  Node InFlow Summary
  *******************
  
  -------------------------------------------------------------------------------------
                                  Maximum  Maximum                  Lateral       Total
                                  Lateral    Total  Time of Max      Inflow      Inflow
                                   Inflow   Inflow   Occurrence      Volume      Volume
  Node                 Type           LPS      LPS  days hr:min    10^6 ltr    10^6 ltr
  -------------------------------------------------------------------------------------
  S102                 JUNCTION      0.00   112.00     1  04:12       0.000       8.598
  S601                 JUNCTION      0.00   291.77     2  05:18       0.000      18.494
  S203                 JUNCTION    328.38   388.75     2  05:02       2.130       4.228
  RUE2                 JUNCTION      0.00   387.07     2  05:03       0.000       4.229
  S101                 JUNCTION    455.17   455.17     4  03:42      10.108      10.108
  RUE1                 JUNCTION      0.00   470.66     2  05:00       0.000       2.499
  S201                 JUNCTION    477.16   477.16     2  04:59       2.497       2.497
  S602                 JUNCTION   1159.63  1398.75     2  05:23      26.761      45.290
  S202                 JUNCTION      0.00    75.00     0  04:25       0.000       2.097
  RUE1Ra               JUNCTION      0.00   395.63     2  05:00       0.000       0.401
  DBKu                 JUNCTION      0.00   720.20     2  05:49       0.000       7.589
  RRBRa                JUNCTION      0.00   342.98     4  03:42       0.000       1.511
  S301                 JUNCTION      0.00   120.00     0  04:28       0.000       4.023
  RUE2Ra               JUNCTION      0.00   267.05     2  05:03       0.000       0.212
  S401                 JUNCTION    749.44   749.44     2  04:58       8.296       8.296
  FBRa                 JUNCTION      0.00   689.18     2  04:58       0.000       2.426
  S402                 JUNCTION      0.00    60.00     0  04:29       0.000       5.870
  S701                 JUNCTION      0.00   100.00     0  04:33       0.000      37.201
  DBBu                 JUNCTION      0.00   294.56     2  05:49       0.000       0.516
  DBAus                JUNCTION      0.00  1015.98     2  05:49       0.000       8.105
  RRBAus               OUTFALL       0.00   343.00     4  03:42       0.000       1.512
  RUE1Ra1              OUTFALL       0.00   395.14     2  05:00       0.000       0.401
  RUE2Ra1              OUTFALL       0.00   267.17     2  05:03       0.000       0.212
  KLA                  OUTFALL       0.00   100.12     2  05:02       0.000      37.202
  FBRa1                OUTFALL       0.00   689.46     2  04:58       0.000       2.426
  DBAus2               OUTFALL       0.00  1015.47     2  05:50       0.000       8.096
  RRB                  STORAGE       0.00   455.11     4  03:42       0.000      10.109
  FB                   STORAGE       0.00   749.57     2  04:57       0.000       8.296
  DB                   STORAGE       0.00  1339.01     2  05:32       0.000      45.297
  
  
  **********************
  Node Surcharge Summary
  **********************
  
  Surcharging occurs when water rises above the top of the highest conduit.
  ---------------------------------------------------------------------
                                               Max. Height   Min. Depth
                                   Hours       Above Crown    Below Rim
  Node                 Type      Surcharged         Meters       Meters
  ---------------------------------------------------------------------
  S203                 JUNCTION        0.15          0.277        3.223
  S201                 JUNCTION        0.21          1.227        2.273
  
  
  *********************
  Node Flooding Summary
  *********************
  
  No nodes were flooded.
  
  
  **********************
  Storage Volume Summary
  **********************
  
  --------------------------------------------------------------------------------------
                         Average     Avg       Maximum     Max    Time of Max    Maximum
                          Volume    Pcnt        Volume    Pcnt     Occurrence    Outflow
  Storage Unit           1000 m3    Full       1000 m3    Full    days hr:min        LPS
  --------------------------------------------------------------------------------------
  RRB                      0.020       3         0.266      41       4  03:42     454.98
  FB                       0.023       3         0.224      32       2  04:58     749.18
  DB                       0.490      11         2.198      49       2  05:49    1114.76
  
  
  ***********************
  Outfall Loading Summary
  ***********************
  
  -----------------------------------------------------------
                        Flow       Avg.      Max.       Total
                        Freq.      Flow      Flow      Volume
  Outfall Node          Pcnt.       LPS       LPS    10^6 ltr
  -----------------------------------------------------------
  RRBAus                 2.44    110.50    343.00       1.512
  RUE1Ra1                1.80     39.69    395.14       0.401
  RUE2Ra1                0.89     42.44    267.17       0.212
  KLA                  100.00     66.24    100.12      37.202
  FBRa1                  4.86     88.95    689.46       2.426
  DBAus2                 6.57    219.45   1015.47       8.096
  -----------------------------------------------------------
  System                19.43    567.28   1369.42      49.849
  
  
  ********************
  Link Flow Summary
  ********************
  
  -----------------------------------------------------------------------------
                                 Maximum  Time of Max   Maximum    Max/    Max/
                                  |Flow|   Occurrence  Velocity    Full    Full
  Link                 Type          LPS  days hr:min     m/sec    Flow   Depth
  -----------------------------------------------------------------------------
  S101                 CONDUIT    455.11     4  03:42      1.83    0.27    0.35
  S102                 CONDUIT    112.86     5  06:46      1.66    0.61    0.71
  S301                 CONDUIT    120.24     0  04:28      2.79    0.88    0.94
  S203                 CONDUIT    387.07     2  05:03      1.97    1.23    1.00
  S202                 CONDUIT     84.93     2  05:14      1.44    1.13    1.00
  S201                 CONDUIT    470.66     2  05:00      2.40    1.76    1.00
  S601                 CONDUIT    273.83     2  05:19      1.34    0.38    0.62
  RUE1                 CONDUIT     75.00     0  04:25      0.21    0.03    0.22
  DBKu                 CONDUIT    720.21     2  05:49      3.80    1.91    0.98
  RRBRa                CONDUIT    343.00     4  03:42      2.17    0.14    0.26
  RUE1Ra               CONDUIT    395.14     2  05:00      2.20    1.05    0.86
  RUE2                 CONDUIT    120.00     0  04:28      0.29    0.05    0.14
  RUE2Ra               CONDUIT    267.17     2  05:03      2.10    0.44    0.46
  S402                 CONDUIT     65.83     6  04:40      2.57    0.39    0.71
  S401                 CONDUIT    749.57     2  04:57      2.36    0.68    0.60
  FBRa                 CONDUIT    689.46     2  04:58      2.66    0.52    0.51
  S602                 CONDUIT   1339.01     2  05:32      2.08    0.63    0.55
  S701                 CONDUIT    100.12     2  05:02      1.30    0.76    0.62
  DBAus                CONDUIT   1015.47     2  05:50      2.69    0.47    0.48
  DBBu                 CONDUIT    295.78     2  05:49      0.93    0.12    0.42
  RRB                  PUMP       112.00     1  04:12              4.00
  FB                   PUMP        60.00     0  04:29              4.00
  DB                   PUMP       100.00     0  04:33              1.00
  WE_RUE1              WEIR       395.63     2  05:00                      0.09
  WE_RUE2              WEIR       267.05     2  05:03                      0.07
  WE_FB                WEIR       689.18     2  04:58                      0.24
  KU_DB                WEIR       720.20     2  05:49                      1.00
  BU_DB                WEIR       294.56     2  05:49                      0.05
  BU_RRB               WEIR       342.98     4  03:42                      0.16
  
  
  ***************************
  Flow Classification Summary
  ***************************
  
  -----------------------------------------------------------------------------------------
                      Adjusted    --- Fraction of Time in Flow Class ----   Avg.     Avg.  
                       /Actual         Up    Down  Sub   Sup   Up    Down   Froude   Flow  
  Conduit               Length    Dry  Dry   Dry   Crit  Crit  Crit  Crit   Number   Change
  -----------------------------------------------------------------------------------------
  S101                    1.00   0.00  0.00  0.00  0.00  0.00  0.00  1.00     1.06   0.0000
  S102                    1.00   0.00  0.00  0.00  0.97  0.03  0.00  0.00     0.75   0.0000
  S301                    1.00   0.00  0.00  0.00  0.97  0.03  0.00  0.00     0.54   0.0001
  S203                    1.00   0.00  0.00  0.00  0.02  0.98  0.00  0.00     1.15   0.0000
  S202                    1.00   0.00  0.00  0.00  0.96  0.04  0.00  0.00     0.79   0.0000
  S201                    1.00   0.00  0.00  0.00  0.99  0.01  0.00  0.00     0.78   0.0000
  S601                    1.00   0.00  0.00  0.00  1.00  0.00  0.00  0.00     0.57   0.0000
  RUE1                    1.00   0.00  0.00  0.00  1.00  0.00  0.00  0.00     0.05   0.0000
  DBKu                    1.00   0.00  0.93  0.00  0.01  0.06  0.00  0.00     0.09   0.0000
  RRBRa                   1.00   0.00  0.00  0.00  0.98  0.02  0.00  0.00     0.05   0.0000
  RUE1Ra                  1.00   0.00  0.00  0.00  0.97  0.03  0.00  0.00     0.07   0.0000
  RUE2                    1.00   0.00  0.00  0.00  1.00  0.00  0.00  0.00     0.09   0.0000
  RUE2Ra                  1.00   0.00  0.00  0.00  0.99  0.01  0.00  0.00     0.03   0.0000
  S402                    1.00   0.00  0.00  0.00  0.88  0.12  0.00  0.00     0.81   0.0000
  S401                    1.00   0.00  0.00  0.00  0.00  0.00  0.00  1.00     1.14   0.0000
  FBRa                    1.00   0.00  0.00  0.00  0.95  0.05  0.00  0.00     0.11   0.0000
  S602                    1.00   0.00  0.00  0.00  0.00  0.00  0.00  1.00     0.90   0.0000
  S701                    1.00   0.00  0.00  0.00  1.00  0.00  0.00  0.00     0.89   0.0000
  DBAus                   1.00   0.00  0.00  0.00  0.94  0.06  0.00  0.00     0.10   0.0000
  DBBu                    1.00   0.00  0.96  0.00  0.04  0.00  0.00  0.00     0.00   0.0000
  
  
  *************************
  Conduit Surcharge Summary
  *************************
  
  ----------------------------------------------------------------------------
                                                           Hours        Hours 
                         --------- Hours Full --------   Above Full   Capacity
  Conduit                Both Ends  Upstream  Dnstream   Normal Flow   Limited
  ----------------------------------------------------------------------------
  S203                        0.15      0.15      0.16      0.11         0.11
  S202                        0.31      0.31      0.31      1.24         0.14
  S201                        0.21      0.21      0.21      0.19         0.19
  DBKu                        0.01      0.01      0.01      2.53         0.01
  RUE1Ra                      0.01      0.01      0.01      0.06         0.01
  
  
  ***************
  Pumping Summary
  ***************
  
  --------------------------------------------------------------------------------
                                      Max       Avg        Total     Power  % Time
                        Percent      Flow      Flow       Volume     Usage    Off 
  Pump                 Utilized       LPS       LPS     10^6 ltr     Kw-hr   Curve
  --------------------------------------------------------------------------------
  RRB                    100.00    112.00     15.31        8.598     41.91    0.00
  FB                     100.00     60.00     10.45        5.870     27.31    0.00
  DB                     100.00    100.00     66.24       37.201    380.38    0.00
  

  Analysis begun on:  Wed Jul 22 10:51:17 2009
  Analysis ended on:  Wed Jul 22 10:51:46 2009
  Total elapsed time: 00:00:29