
  EPA STORM WATER MANAGEMENT MODEL - VERSION 5.0 (Build 5.0.014)
  --------------------------------------------------------------

  Beispiel ATV-A 128 
  TU Darmstadt 
  ihwb 
  
  *********************************************************
  NOTE: The summary statistics displayed in this report are
  based on results found at every computational time step,  
  not just on results from each reporting time step.
  *********************************************************
  
  ****************
  Analysis Options
  ****************
  Flow Units ............... LPS
  Process Models:
    Rainfall/Runoff ........ NO
    Snowmelt ............... NO
    Groundwater ............ NO
    Flow Routing ........... YES
    Water Quality .......... NO
  Flow Routing Method ...... DYNWAVE
  Starting Date ............ JUN-10-2001 12:00:00
  Ending Date .............. JUN-17-2001 00:00:00
  Antecedent Dry Days ...... 0.0
  Report Time Step ......... 00:01:00
  Routing Time Step ........ 1.00 sec
  
  WARNING 05: minimum elevation drop used for Conduit RUE1
  WARNING 05: minimum elevation drop used for Conduit RUE2
  
  *********************
  Control Actions Taken
  *********************

  
  **************************        Volume        Volume
  Flow Routing Continuity        hectare-m      10^6 ltr
  **************************     ---------     ---------
  Dry Weather Inflow .......         0.000         0.000
  Wet Weather Inflow .......         0.000         0.000
  Groundwater Inflow .......         0.000         0.000
  RDII Inflow ..............         0.000         0.000
  External Inflow ..........         4.979        49.793
  External Outflow .........         4.983        49.827
  Internal Outflow .........         0.000         0.000
  Evaporation Loss .........         0.000         0.000
  Initial Stored Volume ....         0.010         0.102
  Final Stored Volume ......         0.007         0.071
  Continuity Error (%) .....        -0.007
  
  
  ***************************
  Time-Step Critical Elements
  ***************************
  None
  
  
  ********************************
  Highest Flow Instability Indexes
  ********************************
  All links are stable.
  
  
  *************************
  Routing Time Step Summary
  *************************
  Minimum Time Step           :     0.50 sec
  Average Time Step           :     1.00 sec
  Maximum Time Step           :     1.00 sec
  Percent in Steady State     :     0.00
  Average Iterations per Step :     2.00
  
  
  ******************
  Node Depth Summary
  ******************
  
  ---------------------------------------------------------------------
                                 Average  Maximum  Maximum  Time of Max
                                   Depth    Depth      HGL   Occurrence
  Node                 Type       Meters   Meters   Meters  days hr:min
  ---------------------------------------------------------------------
  S102                 JUNCTION     0.06     0.09   110.10     0  05:53
  S601                 JUNCTION     0.10     0.23   106.24     2  05:20
  S203                 JUNCTION     0.04     0.73   107.22     2  05:03
  RUE2                 JUNCTION     0.04     0.64   106.85     2  05:03
  S101                 JUNCTION     0.06     0.35   110.96     4  03:42
  RUE1                 JUNCTION     0.04     0.69   107.78     2  05:01
  S201                 JUNCTION     0.03     1.73   109.32     2  05:00
  S602                 JUNCTION     0.14     0.65   102.79     2  05:32
  S202                 JUNCTION     0.04     0.34   107.43     2  05:05
  RUE1Ra               JUNCTION     0.00     0.58   107.67     2  05:01
  DBKu                 JUNCTION     0.02     0.76    99.76     2  05:33
  RRBRa                JUNCTION     0.01     0.29   109.30     4  03:42
  S301                 JUNCTION     0.04     0.20   106.41     2  05:20
  RUE2Ra               JUNCTION     0.00     0.28   106.49     2  05:03
  S401                 JUNCTION     0.05     0.48   107.44     2  04:57
  FBRa                 JUNCTION     0.01     0.43   106.04     2  04:54
  S402                 JUNCTION     0.04     0.06   106.67     1  14:33
  S701                 JUNCTION     0.18     0.27   100.67     2  05:02
  DBBu                 JUNCTION     0.01     0.42    99.42     2  05:25
  DBAus                JUNCTION     0.02     0.51    99.41     2  05:33
  RRBAus               OUTFALL      0.01     0.29   108.80     4  03:42
  RUE1Ra1              OUTFALL      0.00     0.43   106.52     2  05:01
  RUE2Ra1              OUTFALL      0.00     0.28   105.49     2  05:03
  KLA                  OUTFALL      0.16     0.23   100.23     2  05:02
  FBRa1                OUTFALL      0.01     0.43   105.04     2  04:58
  DBAus2               OUTFALL      0.01     0.51    99.01     2  05:33
  RRB                  STORAGE      0.59     2.68   110.19     4  03:42
  FB                   STORAGE      0.41     2.25   106.36     2  04:58
  DB                   STORAGE      0.78     4.41    99.81     2  05:33
  
  
  *******************
  Node InFlow Summary
  *******************
  
  -------------------------------------------------------------------------------------
                                  Maximum  Maximum                  Lateral       Total
                                  Lateral    Total  Time of Max      Inflow      Inflow
                                   Inflow   Inflow   Occurrence      Volume      Volume
  Node                 Type           LPS      LPS  days hr:min    10^6 ltr    10^6 ltr
  -------------------------------------------------------------------------------------
  S102                 JUNCTION      0.00    20.00     0  04:16       0.000       6.626
  S601                 JUNCTION      0.00   134.16     0  04:28       0.000      14.915
  S203                 JUNCTION    328.37   367.11     2  05:02       2.130       4.075
  RUE2                 JUNCTION      0.00   365.67     2  05:03       0.000       4.075
  S101                 JUNCTION    455.17   455.17     4  03:42      10.108      10.108
  RUE1                 JUNCTION      0.00   470.62     2  05:00       0.000       2.499
  S201                 JUNCTION    477.16   477.16     2  04:59       2.497       2.497
  S602                 JUNCTION   1159.64  1267.19     2  05:24      26.761      41.703
  S202                 JUNCTION      0.00    49.60     0  04:24       0.000       1.945
  RUE1Ra               JUNCTION      0.00   420.23     2  04:59       0.000       0.554
  DBKu                 JUNCTION      0.00   722.81     2  05:26       0.000       9.083
  RRBRa                JUNCTION      0.00   435.00     4  03:42       0.000       3.483
  S301                 JUNCTION      0.00   100.00     0  04:28       0.000       3.864
  RUE2Ra               JUNCTION      0.00   265.65     2  05:03       0.000       0.210
  S401                 JUNCTION    749.44   749.44     2  04:58       8.296       8.296
  FBRa                 JUNCTION      0.00   735.21     2  04:58       0.000       3.875
  S402                 JUNCTION      0.00    14.00     0  04:18       0.000       4.421
  S701                 JUNCTION      0.00   100.00     0  04:33       0.000      32.031
  DBBu                 JUNCTION      0.00   394.94     2  05:33       0.000       0.602
  DBAus                JUNCTION      0.00  1106.23     2  05:33       0.000       9.684
  RRBAus               OUTFALL       0.00   435.00     4  03:42       0.000       3.483
  RUE1Ra1              OUTFALL       0.00   410.93     2  05:01       0.000       0.554
  RUE2Ra1              OUTFALL       0.00   265.73     2  05:03       0.000       0.210
  KLA                  OUTFALL       0.00   100.12     2  05:02       0.000      32.031
  FBRa1                OUTFALL       0.00   735.51     2  04:58       0.000       3.876
  DBAus2               OUTFALL       0.00  1106.29     2  05:33       0.000       9.672
  RRB                  STORAGE       0.00   455.11     4  03:42       0.000      10.109
  FB                   STORAGE       0.00   749.57     2  04:57       0.000       8.296
  DB                   STORAGE       0.00  1206.46     2  05:32       0.000      41.703
  
  
  **********************
  Node Surcharge Summary
  **********************
  
  Surcharging occurs when water rises above the top of the highest conduit.
  ---------------------------------------------------------------------
                                               Max. Height   Min. Depth
                                   Hours       Above Crown    Below Rim
  Node                 Type      Surcharged         Meters       Meters
  ---------------------------------------------------------------------
  S203                 JUNCTION        0.14          0.232        3.268
  S201                 JUNCTION        0.21          1.234        2.266
  
  
  *********************
  Node Flooding Summary
  *********************
  
  No nodes were flooded.
  
  
  **********************
  Storage Volume Summary
  **********************
  
  --------------------------------------------------------------------------------------
                         Average     Avg       Maximum     Max    Time of Max    Maximum
                          Volume    Pcnt        Volume    Pcnt     Occurrence    Outflow
  Storage Unit           1000 m3    Full       1000 m3    Full    days hr:min        LPS
  --------------------------------------------------------------------------------------
  RRB                      0.059       9         0.268      41       4  03:42     455.00
  FB                       0.041       6         0.225      32       2  04:58     749.21
  DB                       0.117       9         0.662      49       2  05:33    1206.21
  
  
  ***********************
  Outfall Loading Summary
  ***********************
  
  -----------------------------------------------------------
                        Flow       Avg.      Max.       Total
                        Freq.      Flow      Flow      Volume
  Outfall Node          Pcnt.       LPS       LPS    10^6 ltr
  -----------------------------------------------------------
  RRBAus                 7.98     78.21    435.00       3.483
  RUE1Ra1                2.75     35.89    410.93       0.554
  RUE2Ra1                1.25     29.89    265.73       0.210
  KLA                  100.00     57.05    100.12      32.031
  FBRa1                  8.81     78.45    735.51       3.876
  DBAus2                 9.33    188.41   1106.29       9.672
  -----------------------------------------------------------
  System                21.69    467.89   1440.73      49.827
  
  
  ********************
  Link Flow Summary
  ********************
  
  -----------------------------------------------------------------------------
                                 Maximum  Time of Max   Maximum    Max/    Max/
                                  |Flow|   Occurrence  Velocity    Full    Full
  Link                 Type          LPS  days hr:min     m/sec    Flow   Depth
  -----------------------------------------------------------------------------
  S101                 CONDUIT    455.11     4  03:42      1.83    0.27    0.35
  S102                 CONDUIT     20.00     0  05:53      0.91    0.11    0.39
  S301                 CONDUIT    100.32     2  04:57      2.78    0.73    0.70
  S203                 CONDUIT    365.67     2  05:03      1.86    1.16    1.00
  S202                 CONDUIT     62.29     2  05:09      1.30    0.83    1.00
  S201                 CONDUIT    470.62     2  05:00      2.40    1.76    1.00
  S601                 CONDUIT    126.25     2  05:20      1.16    0.17    0.53
  RUE1                 CONDUIT     49.60     0  04:24      0.19    0.02    0.16
  DBKu                 CONDUIT    722.64     2  05:26      3.92    1.91    1.00
  RRBRa                CONDUIT    435.00     4  03:42      2.31    0.18    0.29
  RUE1Ra               CONDUIT    410.93     2  05:01      2.23    1.09    0.93
  RUE2                 CONDUIT    100.00     0  04:28      0.27    0.04    0.14
  RUE2Ra               CONDUIT    265.73     2  05:03      2.09    0.43    0.46
  S402                 CONDUIT     14.00     0  04:21      1.41    0.08    0.47
  S401                 CONDUIT    749.57     2  04:57      2.36    0.68    0.60
  FBRa                 CONDUIT    735.51     2  04:58      2.70    0.56    0.53
  S602                 CONDUIT   1206.46     2  05:32      2.02    0.56    0.52
  S701                 CONDUIT    100.12     2  05:02      1.29    0.76    0.62
  DBAus                CONDUIT   1106.29     2  05:33      2.75    0.52    0.51
  DBBu                 CONDUIT    394.95     2  05:33      1.15    0.16    0.45
  RRB                  PUMP        20.00     0  04:16              1.00
  FB                   PUMP        14.00     0  04:18              1.00
  DB                   PUMP       100.00     0  04:33              1.00
  WE_RUE1              WEIR       420.23     2  04:59                      0.09
  WE_RUE2              WEIR       265.65     2  05:03                      0.07
  WE_FB                WEIR       735.21     2  04:58                      0.25
  KU_DB                WEIR       722.81     2  05:26                      1.00
  BU_DB                WEIR       394.94     2  05:33                      0.06
  BU_RRB               WEIR       435.00     4  03:42                      0.18
  
  
  ***************************
  Flow Classification Summary
  ***************************
  
  -----------------------------------------------------------------------------------------
                      Adjusted    --- Fraction of Time in Flow Class ----   Avg.     Avg.  
                       /Actual         Up    Down  Sub   Sup   Up    Down   Froude   Flow  
  Conduit               Length    Dry  Dry   Dry   Crit  Crit  Crit  Crit   Number   Change
  -----------------------------------------------------------------------------------------
  S101                    1.00   0.00  0.00  0.00  0.00  0.00  0.00  1.00     1.06   0.0000
  S102                    1.00   0.00  0.00  0.00  0.95  0.05  0.00  0.00     0.77   0.0000
  S301                    1.00   0.00  0.00  0.00  0.94  0.06  0.00  0.00     0.54   0.0000
  S203                    1.00   0.00  0.00  0.00  0.01  0.99  0.00  0.00     1.15   0.0000
  S202                    1.00   0.00  0.00  0.00  0.96  0.04  0.00  0.00     0.79   0.0000
  S201                    1.00   0.00  0.00  0.00  0.99  0.01  0.00  0.00     0.78   0.0000
  S601                    1.00   0.00  0.00  0.00  1.00  0.00  0.00  0.00     0.58   0.0000
  RUE1                    1.00   0.00  0.00  0.00  1.00  0.00  0.00  0.00     0.05   0.0000
  DBKu                    1.00   0.00  0.90  0.00  0.02  0.08  0.00  0.00     0.13   0.0000
  RRBRa                   1.00   0.00  0.00  0.00  0.92  0.08  0.00  0.00     0.14   0.0000
  RUE1Ra                  1.00   0.00  0.00  0.00  0.96  0.04  0.00  0.00     0.10   0.0000
  RUE2                    1.00   0.00  0.00  0.00  1.00  0.00  0.00  0.00     0.09   0.0000
  RUE2Ra                  1.00   0.00  0.00  0.00  0.98  0.02  0.00  0.00     0.04   0.0000
  S402                    1.00   0.00  0.00  0.00  0.93  0.07  0.00  0.00     0.81   0.0000
  S401                    1.00   0.00  0.00  0.00  0.00  0.00  0.00  1.00     1.14   0.0000
  FBRa                    1.00   0.00  0.00  0.00  0.91  0.09  0.00  0.00     0.15   0.0000
  S602                    1.00   0.00  0.00  0.00  0.00  0.00  0.00  1.00     0.90   0.0000
  S701                    1.00   0.00  0.00  0.00  1.00  0.00  0.00  0.00     0.90   0.0000
  DBAus                   1.00   0.00  0.00  0.00  0.91  0.09  0.00  0.00     0.15   0.0000
  DBBu                    1.00   0.00  0.94  0.00  0.06  0.00  0.00  0.00     0.00   0.0000
  
  
  *************************
  Conduit Surcharge Summary
  *************************
  
  ----------------------------------------------------------------------------
                                                           Hours        Hours 
                         --------- Hours Full --------   Above Full   Capacity
  Conduit                Both Ends  Upstream  Dnstream   Normal Flow   Limited
  ----------------------------------------------------------------------------
  S203                        0.14      0.14      0.14      0.09         0.09
  S202                        0.06      0.06      0.06      0.01         0.01
  S201                        0.21      0.21      0.21      0.19         0.19
  DBKu                        0.18      0.18      0.18      2.60         0.18
  RUE1Ra                      0.01      0.01      0.01      0.10         0.01
  
  
  ***************
  Pumping Summary
  ***************
  
  --------------------------------------------------------------------------------
                                      Max       Avg        Total     Power  % Time
                        Percent      Flow      Flow       Volume     Usage    Off 
  Pump                 Utilized       LPS       LPS     10^6 ltr     Kw-hr   Curve
  --------------------------------------------------------------------------------
  RRB                    100.00     20.00     11.80        6.626     28.57    0.00
  FB                     100.00     14.00      7.87        4.421     21.84    0.00
  DB                     100.00    100.00     57.05       32.031    335.70    0.00
  
  
  ************
  Node Results
  ************
  
  <<< Node S101 >>>
  -------------------------------------------------------------
                           Inflow  Flooding     Depth      Head
  Date        Time            LPS       LPS    meters    meters
  -------------------------------------------------------------
  JUN-10-2001 12:01:00     12.960     0.000     0.059   110.669
  JUN-10-2001 12:02:00     12.960     0.000     0.060   110.670
  JUN-10-2001 12:03:00     12.960     0.000     0.061   110.671
  JUN-10-2001 12:04:00     12.960     0.000     0.062   110.672
  JUN-10-2001 12:05:00     12.960     0.000     0.062   110.672
  JUN-10-2001 12:06:00     12.960     0.000     0.062   110.672
  JUN-10-2001 12:07:00     12.960     0.000     0.063   110.673
  JUN-10-2001 12:08:00     12.960     0.000     0.063   110.673
  JUN-10-2001 12:09:00     12.960     0.000     0.063   110.673
  JUN-10-2001 12:10:00     12.960     0.000     0.063   110.673
  JUN-10-2001 12:11:00     12.960     0.000     0.063   110.673
  JUN-10-2001 12:12:00     12.960     0.000     0.063   110.673
  JUN-10-2001 12:13:00     12.960     0.000     0.063   110.673
  JUN-10-2001 12:14:00     12.960     0.000     0.063   110.673
  JUN-10-2001 12:15:00     12.960     0.000     0.063   110.673
  JUN-10-2001 12:16:00     12.960     0.000     0.063   110.673
  JUN-10-2001 12:17:00     12.960     0.000     0.063   110.673
  JUN-10-2001 12:18:00     12.960     0.000     0.063   110.673
  JUN-10-2001 12:19:00     12.960     0.000     0.063   110.673
  JUN-10-2001 12:20:00     12.960     0.000     0.063   110.673
  JUN-10-2001 12:21:00     12.960     0.000     0.063   110.673
  JUN-10-2001 12:22:00     12.960     0.000     0.063   110.673
  JUN-10-2001 12:23:00     12.960     0.000     0.063   110.673
  JUN-10-2001 12:24:00     12.960     0.000     0.063   110.673
  JUN-10-2001 12:25:00     12.960     0.000     0.063   110.673
  JUN-10-2001 12:26:00     12.960     0.000     0.063   110.673
  JUN-10-2001 12:27:00     12.960     0.000     0.063   110.673
  JUN-10-2001 12:28:00     12.964     0.000     0.063   110.673
  JUN-10-2001 12:29:00     12.992     0.000     0.063   110.673
  JUN-10-2001 12:30:00     13.073     0.000     0.063   110.673
  JUN-10-2001 12:31:00     13.228     0.000     0.063   110.673
  JUN-10-2001 12:32:00     13.453     0.000     0.063   110.673
  JUN-10-2001 12:33:00     13.739     0.000     0.064   110.674
  JUN-10-2001 12:34:00     14.076     0.000     0.064   110.674
  JUN-10-2001 12:35:00     14.453     0.000     0.065   110.675
  JUN-10-2001 12:36:00     14.851     0.000     0.065   110.675
  JUN-10-2001 12:37:00     15.248     0.000     0.066   110.676
  JUN-10-2001 12:38:00     15.626     0.000     0.067   110.677
  JUN-10-2001 12:39:00     15.971     0.000     0.068   110.678
  JUN-10-2001 12:40:00     16.276     0.000     0.068   110.678
  JUN-10-2001 12:41:00     16.538     0.000     0.069   110.679
  JUN-10-2001 12:42:00     16.752     0.000     0.069   110.679
  JUN-10-2001 12:43:00     16.921     0.000     0.070   110.680
  JUN-10-2001 12:44:00     17.046     0.000     0.070   110.680
  JUN-10-2001 12:45:00     17.129     0.000     0.071   110.681
  JUN-10-2001 12:46:00     17.174     0.000     0.071   110.681
  JUN-10-2001 12:47:00     17.183     0.000     0.071   110.681
  JUN-10-2001 12:48:00     17.162     0.000     0.071   110.681
  JUN-10-2001 12:49:00     17.114     0.000     0.071   110.681
  JUN-10-2001 12:50:00     17.042     0.000     0.071   110.681
  JUN-10-2001 12:51:00     16.951     0.000     0.071   110.681
  JUN-10-2001 12:52:00     16.843     0.000     0.071   110.681
  JUN-10-2001 12:53:00     16.722     0.000     0.071   110.681
  JUN-10-2001 12:54:00     16.590     0.000     0.070   110.680
  JUN-10-2001 12:55:00     16.451     0.000     0.070   110.680
  JUN-10-2001 12:56:00     16.306     0.000     0.070   110.680
  JUN-10-2001 12:57:00     16.158     0.000     0.070   110.680
  JUN-10-2001 12:58:00     16.007     0.000     0.069   110.679
  JUN-10-2001 12:59:00     15.853     0.000     0.069   110.679
  JUN-10-2001 13:00:00     14.795     0.000     0.068   110.678
  JUN-10-2001 13:01:00     14.644     0.000     0.068   110.678
  JUN-10-2001 13:02:00     14.500     0.000     0.067   110.677
  JUN-10-2001 13:03:00     14.360     0.000     0.066   110.676
  JUN-10-2001 13:04:00     14.224     0.000     0.066   110.676
  JUN-10-2001 13:05:00     14.094     0.000     0.066   110.676
  JUN-10-2001 13:06:00     13.968     0.000     0.065   110.675
  JUN-10-2001 13:07:00     13.848     0.000     0.065   110.675
  JUN-10-2001 13:08:00     13.734     0.000     0.065   110.675
  JUN-10-2001 13:09:00     13.625     0.000     0.065   110.675
  JUN-10-2001 13:10:00     13.523     0.000     0.064   110.674
  JUN-10-2001 13:11:00     13.425     0.000     0.064   110.674
  JUN-10-2001 13:12:00     13.334     0.000     0.064   110.674
  JUN-10-2001 13:13:00     13.248     0.000     0.064   110.674
  JUN-10-2001 13:14:00     13.167     0.000     0.064   110.674
  JUN-10-2001 13:15:00     13.092     0.000     0.063   110.673
  JUN-10-2001 13:16:00     13.021     0.000     0.063   110.673
  JUN-10-2001 13:17:00     12.955     0.000     0.063   110.673
  JUN-10-2001 13:18:00     12.894     0.000     0.063   110.673
  JUN-10-2001 13:19:00     12.837     0.000     0.063   110.673
  JUN-10-2001 13:20:00     12.784     0.000     0.063   110.673
  JUN-10-2001 13:21:00     12.734     0.000     0.063   110.673
  JUN-10-2001 13:22:00     12.689     0.000     0.062   110.672
  JUN-10-2001 13:23:00     12.647     0.000     0.062   110.672
  JUN-10-2001 13:24:00     12.608     0.000     0.062   110.672
  JUN-10-2001 13:25:00     12.572     0.000     0.062   110.672
  JUN-10-2001 13:26:00     12.539     0.000     0.062   110.672
  JUN-10-2001 13:27:00     12.509     0.000     0.062   110.672
  JUN-10-2001 13:28:00     12.481     0.000     0.062   110.672
  JUN-10-2001 13:29:00     12.455     0.000     0.062   110.672
  JUN-10-2001 13:30:00     12.432     0.000     0.062   110.672
  JUN-10-2001 13:31:00     12.410     0.000     0.062   110.672
  JUN-10-2001 13:32:00     12.390     0.000     0.062   110.672
  JUN-10-2001 13:33:00     12.372     0.000     0.062   110.672
  JUN-10-2001 13:34:00     12.355     0.000     0.062   110.672
  JUN-10-2001 13:35:00     12.340     0.000     0.061   110.671
  JUN-10-2001 13:36:00     12.326     0.000     0.061   110.671
  JUN-10-2001 13:37:00     12.313     0.000     0.061   110.671
  JUN-10-2001 13:38:00     12.302     0.000     0.061   110.671
  JUN-10-2001 13:39:00     12.291     0.000     0.061   110.671
  JUN-10-2001 13:40:00     12.282     0.000     0.061   110.671
  JUN-10-2001 13:41:00     12.273     0.000     0.061   110.671
  JUN-10-2001 13:42:00     12.265     0.000     0.061   110.671
  JUN-10-2001 13:43:00     12.257     0.000     0.061   110.671
  JUN-10-2001 13:44:00     12.250     0.000     0.061   110.671
  JUN-10-2001 13:45:00     12.244     0.000     0.061   110.671
  JUN-10-2001 13:46:00     12.239     0.000     0.061   110.671
  JUN-10-2001 13:47:00     12.234     0.000     0.061   110.671
  JUN-10-2001 13:48:00     12.229     0.000     0.061   110.671
  JUN-10-2001 13:49:00     12.224     0.000     0.061   110.671
  JUN-10-2001 13:50:00     12.221     0.000     0.061   110.671
  JUN-10-2001 13:51:00     12.217     0.000     0.061   110.671
  JUN-10-2001 13:52:00     12.214     0.000     0.061   110.671
  JUN-10-2001 13:53:00     12.210     0.000     0.061   110.671
  JUN-10-2001 13:54:00     12.208     0.000     0.061   110.671
  JUN-10-2001 13:55:00     12.205     0.000     0.061   110.671
  JUN-10-2001 13:56:00     12.203     0.000     0.061   110.671
  JUN-10-2001 13:57:00     12.200     0.000     0.061   110.671
  JUN-10-2001 13:58:00     12.198     0.000     0.061   110.671
  JUN-10-2001 13:59:00     12.186     0.000     0.061   110.671
  JUN-10-2001 14:00:00      9.913     0.000     0.060   110.670
  JUN-10-2001 14:01:00      9.901     0.000     0.058   110.668
  JUN-10-2001 14:02:00      9.899     0.000     0.057   110.667
  JUN-10-2001 14:03:00      9.898     0.000     0.057   110.667
  JUN-10-2001 14:04:00      9.896     0.000     0.056   110.666
  JUN-10-2001 14:05:00      9.895     0.000     0.056   110.666
  JUN-10-2001 14:06:00      9.894     0.000     0.056   110.666
  JUN-10-2001 14:07:00      9.892     0.000     0.055   110.665
  JUN-10-2001 14:08:00      9.891     0.000     0.055   110.665
  JUN-10-2001 14:09:00      9.890     0.000     0.055   110.665
  JUN-10-2001 14:10:00      9.889     0.000     0.055   110.665
  JUN-10-2001 14:11:00      9.887     0.000     0.055   110.665
  JUN-10-2001 14:12:00      9.886     0.000     0.055   110.665
  JUN-10-2001 14:13:00      9.885     0.000     0.055   110.665
  JUN-10-2001 14:14:00      9.884     0.000     0.055   110.665
  JUN-10-2001 14:15:00      9.883     0.000     0.055   110.665
  JUN-10-2001 14:16:00      9.882     0.000     0.055   110.665
  JUN-10-2001 14:17:00      9.881     0.000     0.055   110.665
  JUN-10-2001 14:18:00      9.880     0.000     0.055   110.665
  JUN-10-2001 14:19:00      9.879     0.000     0.055   110.665
  JUN-10-2001 14:20:00      9.878     0.000     0.055   110.665
  JUN-10-2001 14:21:00      9.877     0.000     0.055   110.665
  JUN-10-2001 14:22:00      9.876     0.000     0.055   110.665
  JUN-10-2001 14:23:00      9.875     0.000     0.055   110.665
  JUN-10-2001 14:24:00      9.874     0.000     0.055   110.665
  JUN-10-2001 14:25:00      9.873     0.000     0.055   110.665
  JUN-10-2001 14:26:00      9.872     0.000     0.055   110.665
  JUN-10-2001 14:27:00      9.871     0.000     0.055   110.665
  JUN-10-2001 14:28:00      9.870     0.000     0.055   110.665
  JUN-10-2001 14:29:00      9.869     0.000     0.055   110.665
  JUN-10-2001 14:30:00      9.868     0.000     0.055   110.665
  JUN-10-2001 14:31:00      9.867     0.000     0.055   110.665
  JUN-10-2001 14:32:00      9.866     0.000     0.055   110.665
  JUN-10-2001 14:33:00      9.865     0.000     0.055   110.665
  JUN-10-2001 14:34:00      9.864     0.000     0.055   110.665
  JUN-10-2001 14:35:00      9.863     0.000     0.055   110.665
  JUN-10-2001 14:36:00      9.862     0.000     0.055   110.665
  JUN-10-2001 14:37:00      9.861     0.000     0.055   110.665
  JUN-10-2001 14:38:00      9.860     0.000     0.055   110.665
  JUN-10-2001 14:39:00      9.859     0.000     0.055   110.665
  JUN-10-2001 14:40:00      9.857     0.000     0.055   110.665
  JUN-10-2001 14:41:00      9.856     0.000     0.055   110.665
  JUN-10-2001 14:42:00      9.855     0.000     0.055   110.665
  JUN-10-2001 14:43:00      9.854     0.000     0.055   110.665
  JUN-10-2001 14:44:00      9.853     0.000     0.055   110.665
  JUN-10-2001 14:45:00      9.852     0.000     0.055   110.665
  JUN-10-2001 14:46:00      9.851     0.000     0.055   110.665
  JUN-10-2001 14:47:00      9.850     0.000     0.055   110.665
  JUN-10-2001 14:48:00      9.849     0.000     0.055   110.665
  JUN-10-2001 14:49:00      9.848     0.000     0.055   110.665
  JUN-10-2001 14:50:00      9.847     0.000     0.055   110.665
  JUN-10-2001 14:51:00      9.846     0.000     0.055   110.665
  JUN-10-2001 14:52:00      9.845     0.000     0.055   110.665
  JUN-10-2001 14:53:00      9.844     0.000     0.055   110.665
  JUN-10-2001 14:54:00      9.843     0.000     0.055   110.665
  JUN-10-2001 14:55:00      9.842     0.000     0.055   110.665
  JUN-10-2001 14:56:00      9.841     0.000     0.055   110.665
  JUN-10-2001 14:57:00      9.840     0.000     0.055   110.665
  JUN-10-2001 14:58:00      9.839     0.000     0.055   110.665
  JUN-10-2001 14:59:00      9.832     0.000     0.055   110.665
  JUN-10-2001 15:00:00      8.468     0.000     0.054   110.664
  JUN-10-2001 15:01:00      8.461     0.000     0.053   110.663
  JUN-10-2001 15:02:00      8.460     0.000     0.053   110.663
  JUN-10-2001 15:03:00      8.459     0.000     0.052   110.662
  JUN-10-2001 15:04:00      8.458     0.000     0.052   110.662
  JUN-10-2001 15:05:00      8.457     0.000     0.052   110.662
  JUN-10-2001 15:06:00      8.456     0.000     0.051   110.661
  JUN-10-2001 15:07:00      8.455     0.000     0.051   110.661
  JUN-10-2001 15:08:00      8.454     0.000     0.051   110.661
  JUN-10-2001 15:09:00      8.453     0.000     0.051   110.661
  JUN-10-2001 15:10:00      8.452     0.000     0.051   110.661
  JUN-10-2001 15:11:00      8.451     0.000     0.051   110.661
  JUN-10-2001 15:12:00      8.450     0.000     0.051   110.661
  JUN-10-2001 15:13:00      8.450     0.000     0.051   110.661
  JUN-10-2001 15:14:00      8.449     0.000     0.051   110.661
  JUN-10-2001 15:15:00      8.448     0.000     0.051   110.661
  JUN-10-2001 15:16:00      8.447     0.000     0.051   110.661
  JUN-10-2001 15:17:00      8.446     0.000     0.051   110.661
  JUN-10-2001 15:18:00      8.445     0.000     0.051   110.661
  JUN-10-2001 15:19:00      8.444     0.000     0.051   110.661
  JUN-10-2001 15:20:00      8.443     0.000     0.051   110.661
  JUN-10-2001 15:21:00      8.442     0.000     0.051   110.661
  JUN-10-2001 15:22:00      8.442     0.000     0.051   110.661
  JUN-10-2001 15:23:00      8.441     0.000     0.051   110.661
  JUN-10-2001 15:24:00      8.440     0.000     0.051   110.661
  JUN-10-2001 15:25:00      8.439     0.000     0.051   110.661
  JUN-10-2001 15:26:00      8.438     0.000     0.051   110.661
  JUN-10-2001 15:27:00      8.437     0.000     0.051   110.661
  JUN-10-2001 15:28:00      8.436     0.000     0.051   110.661
  JUN-10-2001 15:29:00      8.436     0.000     0.051   110.661
  JUN-10-2001 15:30:00      8.435     0.000     0.051   110.661
  JUN-10-2001 15:31:00      8.434     0.000     0.051   110.661
  JUN-10-2001 15:32:00      8.433     0.000     0.051   110.661
  JUN-10-2001 15:33:00      8.432     0.000     0.051   110.661
  JUN-10-2001 15:34:00      8.432     0.000     0.051   110.661
  JUN-10-2001 15:35:00      8.431     0.000     0.051   110.661
  JUN-10-2001 15:36:00      8.430     0.000     0.051   110.661
  JUN-10-2001 15:37:00      8.429     0.000     0.051   110.661
  JUN-10-2001 15:38:00      8.429     0.000     0.051   110.661
  JUN-10-2001 15:39:00      8.428     0.000     0.051   110.661
  JUN-10-2001 15:40:00      8.427     0.000     0.051   110.661
  JUN-10-2001 15:41:00      8.426     0.000     0.051   110.661
  JUN-10-2001 15:42:00      8.426     0.000     0.051   110.661
  JUN-10-2001 15:43:00      8.425     0.000     0.051   110.661
  JUN-10-2001 15:44:00      8.424     0.000     0.051   110.661
  JUN-10-2001 15:45:00      8.424     0.000     0.051   110.661
  JUN-10-2001 15:46:00      8.423     0.000     0.051   110.661
  JUN-10-2001 15:47:00      8.422     0.000     0.051   110.661
  JUN-10-2001 15:48:00      8.422     0.000     0.051   110.661
  JUN-10-2001 15:49:00      8.421     0.000     0.051   110.661
  JUN-10-2001 15:50:00      8.420     0.000     0.051   110.661
  JUN-10-2001 15:51:00      8.420     0.000     0.051   110.661
  JUN-10-2001 15:52:00      8.419     0.000     0.051   110.661
  JUN-10-2001 15:53:00      8.418     0.000     0.051   110.661
  JUN-10-2001 15:54:00      8.418     0.000     0.051   110.661
  JUN-10-2001 15:55:00      8.417     0.000     0.051   110.661
  JUN-10-2001 15:56:00      8.416     0.000     0.051   110.661
  JUN-10-2001 15:57:00      8.416     0.000     0.051   110.661
  JUN-10-2001 15:58:00      8.415     0.000     0.051   110.661
  JUN-10-2001 15:59:00      8.415     0.000     0.051   110.661
  JUN-10-2001 16:00:00      8.414     0.000     0.051   110.661
  JUN-10-2001 16:01:00      8.414     0.000     0.051   110.661
  JUN-10-2001 16:02:00      8.417     0.000     0.051   110.661
  JUN-10-2001 16:03:00      8.448     0.000     0.051   110.661
  JUN-10-2001 16:04:00      8.555     0.000     0.051   110.661
  JUN-10-2001 16:05:00      8.783     0.000     0.051   110.661
  JUN-10-2001 16:06:00      9.149     0.000     0.052   110.662
  JUN-10-2001 16:07:00      9.644     0.000     0.053   110.662
  JUN-10-2001 16:08:00     10.251     0.000     0.053   110.663
  JUN-10-2001 16:09:00     10.952     0.000     0.055   110.665
  JUN-10-2001 16:10:00     11.750     0.000     0.056   110.666
  JUN-10-2001 16:11:00     12.716     0.000     0.058   110.668
  JUN-10-2001 16:12:00     14.008     0.000     0.060   110.670
  JUN-10-2001 16:13:00     15.793     0.000     0.063   110.673
  JUN-10-2001 16:14:00     18.185     0.000     0.066   110.676
  JUN-10-2001 16:15:00     21.210     0.000     0.071   110.681
  JUN-10-2001 16:16:00     24.789     0.000     0.075   110.685
  JUN-10-2001 16:17:00     28.776     0.000     0.081   110.691
  JUN-10-2001 16:18:00     33.041     0.000     0.087   110.697
  JUN-10-2001 16:19:00     37.478     0.000     0.093   110.703
  JUN-10-2001 16:20:00     41.983     0.000     0.100   110.710
  JUN-10-2001 16:21:00     46.424     0.000     0.106   110.716
  JUN-10-2001 16:22:00     50.662     0.000     0.111   110.721
  JUN-10-2001 16:23:00     54.581     0.000     0.117   110.727
  JUN-10-2001 16:24:00     58.112     0.000     0.121   110.731
  JUN-10-2001 16:25:00     61.208     0.000     0.125   110.735
  JUN-10-2001 16:26:00     63.829     0.000     0.129   110.739
  JUN-10-2001 16:27:00     65.941     0.000     0.132   110.742
  JUN-10-2001 16:28:00     67.531     0.000     0.134   110.744
  JUN-10-2001 16:29:00     68.610     0.000     0.136   110.746
  JUN-10-2001 16:30:00     69.199     0.000     0.137   110.747
  JUN-10-2001 16:31:00     69.334     0.000     0.137   110.747
  JUN-10-2001 16:32:00     69.054     0.000     0.138   110.748
  JUN-10-2001 16:33:00     68.407     0.000     0.138   110.748
  JUN-10-2001 16:34:00     67.434     0.000     0.137   110.747
  JUN-10-2001 16:35:00     66.182     0.000     0.136   110.746
  JUN-10-2001 16:36:00     64.696     0.000     0.135   110.745
  JUN-10-2001 16:37:00     63.017     0.000     0.134   110.744
  JUN-10-2001 16:38:00     61.185     0.000     0.132   110.742
  JUN-10-2001 16:39:00     59.232     0.000     0.130   110.740
  JUN-10-2001 16:40:00     57.193     0.000     0.128   110.738
  JUN-10-2001 16:41:00     55.096     0.000     0.126   110.736
  JUN-10-2001 16:42:00     52.967     0.000     0.124   110.734
  JUN-10-2001 16:43:00     50.827     0.000     0.122   110.732
  JUN-10-2001 16:44:00     48.696     0.000     0.119   110.729
  JUN-10-2001 16:45:00     46.591     0.000     0.117   110.727
  JUN-10-2001 16:46:00     44.525     0.000     0.115   110.725
  JUN-10-2001 16:47:00     42.508     0.000     0.112   110.722
  JUN-10-2001 16:48:00     40.552     0.000     0.110   110.720
  JUN-10-2001 16:49:00     38.662     0.000     0.107   110.717
  JUN-10-2001 16:50:00     36.844     0.000     0.105   110.715
  JUN-10-2001 16:51:00     35.102     0.000     0.103   110.713
  JUN-10-2001 16:52:00     33.440     0.000     0.100   110.710
  JUN-10-2001 16:53:00     31.857     0.000     0.098   110.708
  JUN-10-2001 16:54:00     30.356     0.000     0.096   110.706
  JUN-10-2001 16:55:00     28.936     0.000     0.094   110.704
  JUN-10-2001 16:56:00     27.595     0.000     0.092   110.702
  JUN-10-2001 16:57:00     26.333     0.000     0.090   110.700
  JUN-10-2001 16:58:00     25.148     0.000     0.088   110.698
  JUN-10-2001 16:59:00     24.040     0.000     0.086   110.696
  JUN-10-2001 17:00:00     23.909     0.000     0.085   110.695
  JUN-10-2001 17:01:00     22.942     0.000     0.084   110.694
  JUN-10-2001 17:02:00     22.036     0.000     0.082   110.692
  JUN-10-2001 17:03:00     21.193     0.000     0.081   110.691
  JUN-10-2001 17:04:00     20.410     0.000     0.080   110.690
  JUN-10-2001 17:05:00     19.683     0.000     0.078   110.688
  JUN-10-2001 17:06:00     19.009     0.000     0.077   110.687
  JUN-10-2001 17:07:00     18.385     0.000     0.076   110.686
  JUN-10-2001 17:08:00     17.808     0.000     0.074   110.684
  JUN-10-2001 17:09:00     17.275     0.000     0.073   110.683
  JUN-10-2001 17:10:00     16.784     0.000     0.072   110.682
  JUN-10-2001 17:11:00     16.332     0.000     0.071   110.681
  JUN-10-2001 17:12:00     15.915     0.000     0.070   110.680
  JUN-10-2001 17:13:00     15.532     0.000     0.069   110.679
  JUN-10-2001 17:14:00     15.179     0.000     0.069   110.679
  JUN-10-2001 17:15:00     14.856     0.000     0.068   110.678
  JUN-10-2001 17:16:00     14.559     0.000     0.067   110.677
  JUN-10-2001 17:17:00     14.287     0.000     0.067   110.677
  JUN-10-2001 17:18:00     14.038     0.000     0.066   110.676
  JUN-10-2001 17:19:00     13.810     0.000     0.066   110.676
  JUN-10-2001 17:20:00     13.601     0.000     0.065   110.675
  JUN-10-2001 17:21:00     13.410     0.000     0.065   110.675
  JUN-10-2001 17:22:00     13.235     0.000     0.064   110.674
  JUN-10-2001 17:23:00     13.075     0.000     0.064   110.674
  JUN-10-2001 17:24:00     12.929     0.000     0.063   110.673
  JUN-10-2001 17:25:00     12.795     0.000     0.063   110.673
  JUN-10-2001 17:26:00     12.673     0.000     0.063   110.673
  JUN-10-2001 17:27:00     12.562     0.000     0.062   110.672
  JUN-10-2001 17:28:00     12.460     0.000     0.062   110.672
  JUN-10-2001 17:29:00     12.366     0.000     0.062   110.672
  JUN-10-2001 17:30:00     12.281     0.000     0.062   110.672
  JUN-10-2001 17:31:00     12.203     0.000     0.062   110.672
  JUN-10-2001 17:32:00     12.131     0.000     0.061   110.671
  JUN-10-2001 17:33:00     12.066     0.000     0.061   110.671
  JUN-10-2001 17:34:00     12.006     0.000     0.061   110.671
  JUN-10-2001 17:35:00     11.950     0.000     0.061   110.671
  JUN-10-2001 17:36:00     11.899     0.000     0.061   110.671
  JUN-10-2001 17:37:00     11.852     0.000     0.061   110.671
  JUN-10-2001 17:38:00     11.809     0.000     0.060   110.670
  JUN-10-2001 17:39:00     11.769     0.000     0.060   110.670
  JUN-10-2001 17:40:00     11.731     0.000     0.060   110.670
  JUN-10-2001 17:41:00     11.696     0.000     0.060   110.670
  JUN-10-2001 17:42:00     11.664     0.000     0.060   110.670
  JUN-10-2001 17:43:00     11.634     0.000     0.060   110.670
  JUN-10-2001 17:44:00     11.605     0.000     0.060   110.670
  JUN-10-2001 17:45:00     11.578     0.000     0.060   110.670
  JUN-10-2001 17:46:00     11.553     0.000     0.060   110.670
  JUN-10-2001 17:47:00     11.529     0.000     0.060   110.670
  JUN-10-2001 17:48:00     11.506     0.000     0.060   110.670
  JUN-10-2001 17:49:00     11.484     0.000     0.059   110.669
  JUN-10-2001 17:50:00     11.464     0.000     0.059   110.669
  JUN-10-2001 17:51:00     11.456     0.000     0.059   110.669
  JUN-10-2001 17:52:00     11.486     0.000     0.059   110.669
  JUN-10-2001 17:53:00     11.588     0.000     0.059   110.669
  JUN-10-2001 17:54:00     11.789     0.000     0.060   110.670
  JUN-10-2001 17:55:00     12.103     0.000     0.060   110.670
  JUN-10-2001 17:56:00     12.534     0.000     0.060   110.670
  JUN-10-2001 17:57:00     13.080     0.000     0.061   110.671
  JUN-10-2001 17:58:00     13.736     0.000     0.062   110.672
  JUN-10-2001 17:59:00     14.490     0.000     0.063   110.673
  JUN-10-2001 18:00:00     15.332     0.000     0.065   110.675
  JUN-10-2001 18:01:00     16.250     0.000     0.066   110.676
  JUN-10-2001 18:02:00     17.232     0.000     0.068   110.678
  JUN-10-2001 18:03:00     18.266     0.000     0.070   110.680
  JUN-10-2001 18:04:00     19.341     0.000     0.072   110.682
  JUN-10-2001 18:05:00     20.439     0.000     0.074   110.684
  JUN-10-2001 18:06:00     21.521     0.000     0.076   110.686
  JUN-10-2001 18:07:00     22.541     0.000     0.077   110.687
  JUN-10-2001 18:08:00     23.461     0.000     0.079   110.689
  JUN-10-2001 18:09:00     24.257     0.000     0.081   110.691
  JUN-10-2001 18:10:00     24.919     0.000     0.082   110.692
  JUN-10-2001 18:11:00     25.456     0.000     0.084   110.694
  JUN-10-2001 18:12:00     25.897     0.000     0.085   110.695
  JUN-10-2001 18:13:00     26.283     0.000     0.085   110.695
  JUN-10-2001 18:14:00     26.648     0.000     0.086   110.696
  JUN-10-2001 18:15:00     27.008     0.000     0.087   110.697
  JUN-10-2001 18:16:00     27.352     0.000     0.087   110.697
  JUN-10-2001 18:17:00     27.652     0.000     0.088   110.698
  JUN-10-2001 18:18:00     27.883     0.000     0.088   110.698
  JUN-10-2001 18:19:00     28.031     0.000     0.089   110.699
  JUN-10-2001 18:20:00     28.089     0.000     0.089   110.699
  JUN-10-2001 18:21:00     28.055     0.000     0.089   110.699
  JUN-10-2001 18:22:00     27.932     0.000     0.089   110.699
  JUN-10-2001 18:23:00     27.725     0.000     0.089   110.699
  JUN-10-2001 18:24:00     27.441     0.000     0.089   110.699
  JUN-10-2001 18:25:00     27.088     0.000     0.089   110.699
  JUN-10-2001 18:26:00     26.676     0.000     0.088   110.698
  JUN-10-2001 18:27:00     26.214     0.000     0.087   110.697
  JUN-10-2001 18:28:00     25.710     0.000     0.087   110.697
  JUN-10-2001 18:29:00     25.173     0.000     0.086   110.696
  JUN-10-2001 18:30:00     24.610     0.000     0.085   110.695
  JUN-10-2001 18:31:00     24.030     0.000     0.085   110.695
  JUN-10-2001 18:32:00     23.439     0.000     0.084   110.694
  JUN-10-2001 18:33:00     22.842     0.000     0.083   110.693
  JUN-10-2001 18:34:00     22.245     0.000     0.082   110.692
  JUN-10-2001 18:35:00     21.653     0.000     0.081   110.691
  JUN-10-2001 18:36:00     21.070     0.000     0.080   110.690
  JUN-10-2001 18:37:00     20.498     0.000     0.079   110.689
  JUN-10-2001 18:38:00     19.941     0.000     0.078   110.688
  JUN-10-2001 18:39:00     19.401     0.000     0.077   110.687
  JUN-10-2001 18:40:00     18.879     0.000     0.076   110.686
  JUN-10-2001 18:41:00     18.376     0.000     0.075   110.685
  JUN-10-2001 18:42:00     17.895     0.000     0.074   110.684
  JUN-10-2001 18:43:00     17.435     0.000     0.073   110.683
  JUN-10-2001 18:44:00     16.997     0.000     0.072   110.682
  JUN-10-2001 18:45:00     16.580     0.000     0.071   110.681
  JUN-10-2001 18:46:00     16.185     0.000     0.071   110.681
  JUN-10-2001 18:47:00     15.812     0.000     0.070   110.680
  JUN-10-2001 18:48:00     15.460     0.000     0.069   110.679
  JUN-10-2001 18:49:00     15.128     0.000     0.068   110.678
  JUN-10-2001 18:50:00     14.816     0.000     0.068   110.678
  JUN-10-2001 18:51:00     14.523     0.000     0.067   110.677
  JUN-10-2001 18:52:00     14.248     0.000     0.067   110.677
  JUN-10-2001 18:53:00     13.992     0.000     0.066   110.676
  JUN-10-2001 18:54:00     13.752     0.000     0.065   110.675
  JUN-10-2001 18:55:00     13.528     0.000     0.065   110.675
  JUN-10-2001 18:56:00     13.319     0.000     0.064   110.674
  JUN-10-2001 18:57:00     13.124     0.000     0.064   110.674
  JUN-10-2001 18:58:00     12.943     0.000     0.064   110.674
  JUN-10-2001 18:59:00     12.768     0.000     0.063   110.673
  JUN-10-2001 19:00:00     11.248     0.000     0.062   110.672
  JUN-10-2001 19:01:00     11.097     0.000     0.061   110.671
  JUN-10-2001 19:02:00     10.962     0.000     0.060   110.670
  JUN-10-2001 19:03:00     10.836     0.000     0.059   110.669
  JUN-10-2001 19:04:00     10.720     0.000     0.059   110.669
  JUN-10-2001 19:05:00     10.612     0.000     0.058   110.668
  JUN-10-2001 19:06:00     10.511     0.000     0.058   110.668
  JUN-10-2001 19:07:00     10.418     0.000     0.057   110.667
  JUN-10-2001 19:08:00     10.332     0.000     0.057   110.667
  JUN-10-2001 19:09:00     10.252     0.000     0.057   110.667
  JUN-10-2001 19:10:00     10.178     0.000     0.057   110.667
  JUN-10-2001 19:11:00     10.108     0.000     0.056   110.666
  JUN-10-2001 19:12:00     10.044     0.000     0.056   110.666
  JUN-10-2001 19:13:00      9.984     0.000     0.056   110.666
  JUN-10-2001 19:14:00      9.929     0.000     0.056   110.666
  JUN-10-2001 19:15:00      9.877     0.000     0.056   110.666
  JUN-10-2001 19:16:00      9.828     0.000     0.055   110.665
  JUN-10-2001 19:17:00      9.783     0.000     0.055   110.665
  JUN-10-2001 19:18:00      9.741     0.000     0.055   110.665
  JUN-10-2001 19:19:00      9.701     0.000     0.055   110.665
  JUN-10-2001 19:20:00      9.664     0.000     0.055   110.665
  JUN-10-2001 19:21:00      9.629     0.000     0.055   110.665
  JUN-10-2001 19:22:00      9.596     0.000     0.055   110.665
  JUN-10-2001 19:23:00      9.565     0.000     0.055   110.665
  JUN-10-2001 19:24:00      9.535     0.000     0.054   110.664
  JUN-10-2001 19:25:00      9.507     0.000     0.054   110.664
  JUN-10-2001 19:26:00      9.481     0.000     0.054   110.664
  JUN-10-2001 19:27:00      9.456     0.000     0.054   110.664
  JUN-10-2001 19:28:00      9.432     0.000     0.054   110.664
  JUN-10-2001 19:29:00      9.409     0.000     0.054   110.664
  JUN-10-2001 19:30:00      9.387     0.000     0.054   110.664
  JUN-10-2001 19:31:00      9.366     0.000     0.054   110.664
  JUN-10-2001 19:32:00      9.345     0.000     0.054   110.664
  JUN-10-2001 19:33:00      9.326     0.000     0.054   110.664
  JUN-10-2001 19:34:00      9.307     0.000     0.054   110.664
  JUN-10-2001 19:35:00      9.289     0.000     0.054   110.664
  JUN-10-2001 19:36:00      9.271     0.000     0.054   110.664
  JUN-10-2001 19:37:00      9.254     0.000     0.054   110.664
  JUN-10-2001 19:38:00      9.237     0.000     0.054   110.664
  JUN-10-2001 19:39:00      9.221     0.000     0.053   110.663
  JUN-10-2001 19:40:00      9.205     0.000     0.053   110.663
  JUN-10-2001 19:41:00      9.189     0.000     0.053   110.663
  JUN-10-2001 19:42:00      9.174     0.000     0.053   110.663
  JUN-10-2001 19:43:00      9.159     0.000     0.053   110.663
  JUN-10-2001 19:44:00      9.144     0.000     0.053   110.663
  JUN-10-2001 19:45:00      9.130     0.000     0.053   110.663
  JUN-10-2001 19:46:00      9.116     0.000     0.053   110.663
  JUN-10-2001 19:47:00      9.102     0.000     0.053   110.663
  JUN-10-2001 19:48:00      9.088     0.000     0.053   110.663
  JUN-10-2001 19:49:00      9.074     0.000     0.053   110.663
  JUN-10-2001 19:50:00      9.061     0.000     0.053   110.663
  JUN-10-2001 19:51:00      9.047     0.000     0.053   110.663
  JUN-10-2001 19:52:00      9.034     0.000     0.053   110.663
  JUN-10-2001 19:53:00      9.021     0.000     0.053   110.663
  JUN-10-2001 19:54:00      9.008     0.000     0.053   110.663
  JUN-10-2001 19:55:00      8.996     0.000     0.053   110.663
  JUN-10-2001 19:56:00      8.983     0.000     0.053   110.663
  JUN-10-2001 19:57:00      8.970     0.000     0.053   110.663
  JUN-10-2001 19:58:00      8.958     0.000     0.053   110.663
  JUN-10-2001 19:59:00      8.938     0.000     0.053   110.663
  JUN-10-2001 20:00:00      7.108     0.000     0.052   110.662
  JUN-10-2001 20:01:00      7.088     0.000     0.050   110.660
  JUN-10-2001 20:02:00      7.076     0.000     0.049   110.659
  JUN-10-2001 20:03:00      7.064     0.000     0.048   110.658
  JUN-10-2001 20:04:00      7.052     0.000     0.048   110.658
  JUN-10-2001 20:05:00      7.041     0.000     0.048   110.658
  JUN-10-2001 20:06:00      7.029     0.000     0.047   110.657
  JUN-10-2001 20:07:00      7.017     0.000     0.047   110.657
  JUN-10-2001 20:08:00      7.006     0.000     0.047   110.657
  JUN-10-2001 20:09:00      6.995     0.000     0.047   110.657
  JUN-10-2001 20:10:00      6.983     0.000     0.047   110.657
  JUN-10-2001 20:11:00      6.972     0.000     0.047   110.657
  JUN-10-2001 20:12:00      6.961     0.000     0.047   110.657
  JUN-10-2001 20:13:00      6.950     0.000     0.047   110.657
  JUN-10-2001 20:14:00      6.939     0.000     0.047   110.657
  JUN-10-2001 20:15:00      6.928     0.000     0.047   110.657
  JUN-10-2001 20:16:00      6.917     0.000     0.047   110.657
  JUN-10-2001 20:17:00      6.907     0.000     0.047   110.657
  JUN-10-2001 20:18:00      6.896     0.000     0.047   110.657
  JUN-10-2001 20:19:00      6.886     0.000     0.047   110.657
  JUN-10-2001 20:20:00      6.875     0.000     0.046   110.656
  JUN-10-2001 20:21:00      6.865     0.000     0.046   110.656
  JUN-10-2001 20:22:00      6.855     0.000     0.046   110.656
  JUN-10-2001 20:23:00      6.845     0.000     0.046   110.656
  JUN-10-2001 20:24:00      6.834     0.000     0.046   110.656
  JUN-10-2001 20:25:00      6.825     0.000     0.046   110.656
  JUN-10-2001 20:26:00      6.815     0.000     0.046   110.656
  JUN-10-2001 20:27:00      6.805     0.000     0.046   110.656
  JUN-10-2001 20:28:00      6.795     0.000     0.046   110.656
  JUN-10-2001 20:29:00      6.786     0.000     0.046   110.656
  JUN-10-2001 20:30:00      6.776     0.000     0.046   110.656
  JUN-10-2001 20:31:00      6.767     0.000     0.046   110.656
  JUN-10-2001 20:32:00      6.757     0.000     0.046   110.656
  JUN-10-2001 20:33:00      6.748     0.000     0.046   110.656
  JUN-10-2001 20:34:00      6.739     0.000     0.046   110.656
  JUN-10-2001 20:35:00      6.730     0.000     0.046   110.656
  JUN-10-2001 20:36:00      6.721     0.000     0.046   110.656
  JUN-10-2001 20:37:00      6.712     0.000     0.046   110.656
  JUN-10-2001 20:38:00      6.703     0.000     0.046   110.656
  JUN-10-2001 20:39:00      6.694     0.000     0.046   110.656
  JUN-10-2001 20:40:00      6.686     0.000     0.046   110.656
  JUN-10-2001 20:41:00      6.677     0.000     0.046   110.656
  JUN-10-2001 20:42:00      6.669     0.000     0.046   110.656
  JUN-10-2001 20:43:00      6.660     0.000     0.046   110.656
  JUN-10-2001 20:44:00      6.652     0.000     0.046   110.656
  JUN-10-2001 20:45:00      6.644     0.000     0.046   110.656
  JUN-10-2001 20:46:00      6.636     0.000     0.046   110.656
  JUN-10-2001 20:47:00      6.628     0.000     0.046   110.656
  JUN-10-2001 20:48:00      6.620     0.000     0.046   110.656
  JUN-10-2001 20:49:00      6.612     0.000     0.046   110.656
  JUN-10-2001 20:50:00      6.605     0.000     0.046   110.656
  JUN-10-2001 20:51:00      6.597     0.000     0.046   110.656
  JUN-10-2001 20:52:00      6.589     0.000     0.046   110.656
  JUN-10-2001 20:53:00      6.582     0.000     0.046   110.656
  JUN-10-2001 20:54:00      6.575     0.000     0.046   110.656
  JUN-10-2001 20:55:00      6.567     0.000     0.045   110.655
  JUN-10-2001 20:56:00      6.560     0.000     0.045   110.655
  JUN-10-2001 20:57:00      6.553     0.000     0.045   110.655
  JUN-10-2001 20:58:00      6.546     0.000     0.045   110.655
  JUN-10-2001 20:59:00      6.531     0.000     0.045   110.655
  JUN-10-2001 21:00:00      4.707     0.000     0.044   110.654
  JUN-10-2001 21:01:00      4.692     0.000     0.043   110.653
  JUN-10-2001 21:02:00      4.685     0.000     0.042   110.652
  JUN-10-2001 21:03:00      4.679     0.000     0.041   110.651
  JUN-10-2001 21:04:00      4.672     0.000     0.040   110.650
  JUN-10-2001 21:05:00      4.666     0.000     0.040   110.650
  JUN-10-2001 21:06:00      4.659     0.000     0.040   110.650
  JUN-10-2001 21:07:00      4.653     0.000     0.040   110.650
  JUN-10-2001 21:08:00      4.647     0.000     0.039   110.649
  JUN-10-2001 21:09:00      4.641     0.000     0.039   110.649
  JUN-10-2001 21:10:00      4.635     0.000     0.039   110.649
  JUN-10-2001 21:11:00      4.629     0.000     0.039   110.649
  JUN-10-2001 21:12:00      4.623     0.000     0.039   110.649
  JUN-10-2001 21:13:00      4.617     0.000     0.039   110.649
  JUN-10-2001 21:14:00      4.611     0.000     0.039   110.649
  JUN-10-2001 21:15:00      4.606     0.000     0.039   110.649
  JUN-10-2001 21:16:00      4.600     0.000     0.039   110.649
  JUN-10-2001 21:17:00      4.594     0.000     0.039   110.649
  JUN-10-2001 21:18:00      4.589     0.000     0.039   110.649
  JUN-10-2001 21:19:00      4.584     0.000     0.039   110.649
  JUN-10-2001 21:20:00      4.578     0.000     0.039   110.649
  JUN-10-2001 21:21:00      4.573     0.000     0.039   110.649
  JUN-10-2001 21:22:00      4.568     0.000     0.039   110.649
  JUN-10-2001 21:23:00      4.563     0.000     0.039   110.649
  JUN-10-2001 21:24:00      4.558     0.000     0.039   110.649
  JUN-10-2001 21:25:00      4.553     0.000     0.039   110.649
  JUN-10-2001 21:26:00      4.548     0.000     0.039   110.649
  JUN-10-2001 21:27:00      4.543     0.000     0.039   110.649
  JUN-10-2001 21:28:00      4.539     0.000     0.039   110.649
  JUN-10-2001 21:29:00      4.534     0.000     0.039   110.649
  JUN-10-2001 21:30:00      4.529     0.000     0.039   110.649
  JUN-10-2001 21:31:00      4.525     0.000     0.039   110.649
  JUN-10-2001 21:32:00      4.520     0.000     0.039   110.649
  JUN-10-2001 21:33:00      4.516     0.000     0.039   110.649
  JUN-10-2001 21:34:00      4.512     0.000     0.039   110.649
  JUN-10-2001 21:35:00      4.507     0.000     0.039   110.649
  JUN-10-2001 21:36:00      4.503     0.000     0.039   110.649
  JUN-10-2001 21:37:00      4.499     0.000     0.039   110.649
  JUN-10-2001 21:38:00      4.495     0.000     0.039   110.649
  JUN-10-2001 21:39:00      4.491     0.000     0.039   110.649
  JUN-10-2001 21:40:00      4.487     0.000     0.039   110.649
  JUN-10-2001 21:41:00      4.483     0.000     0.039   110.649
  JUN-10-2001 21:42:00      4.479     0.000     0.039   110.649
  JUN-10-2001 21:43:00      4.475     0.000     0.039   110.649
  JUN-10-2001 21:44:00      4.471     0.000     0.039   110.649
  JUN-10-2001 21:45:00      4.468     0.000     0.039   110.649
  JUN-10-2001 21:46:00      4.464     0.000     0.039   110.649
  JUN-10-2001 21:47:00      4.461     0.000     0.039   110.649
  JUN-10-2001 21:48:00      4.457     0.000     0.039   110.649
  JUN-10-2001 21:49:00      4.454     0.000     0.039   110.649
  JUN-10-2001 21:50:00      4.450     0.000     0.039   110.649
  JUN-10-2001 21:51:00      4.447     0.000     0.039   110.649
  JUN-10-2001 21:52:00      4.443     0.000     0.039   110.649
  JUN-10-2001 21:53:00      4.440     0.000     0.039   110.649
  JUN-10-2001 21:54:00      4.437     0.000     0.039   110.649
  JUN-10-2001 21:55:00      4.434     0.000     0.039   110.649
  JUN-10-2001 21:56:00      4.431     0.000     0.039   110.649
  JUN-10-2001 21:57:00      4.428     0.000     0.039   110.649
  JUN-10-2001 21:58:00      4.425     0.000     0.039   110.649
  JUN-10-2001 21:59:00      4.418     0.000     0.039   110.649
  JUN-10-2001 22:00:00      3.506     0.000     0.038   110.648
  JUN-10-2001 22:01:00      3.499     0.000     0.037   110.647
  JUN-10-2001 22:02:00      3.496     0.000     0.037   110.647
  JUN-10-2001 22:03:00      3.493     0.000     0.036   110.646
  JUN-10-2001 22:04:00      3.491     0.000     0.036   110.646
  JUN-10-2001 22:05:00      3.488     0.000     0.036   110.646
  JUN-10-2001 22:06:00      3.485     0.000     0.036   110.646
  JUN-10-2001 22:07:00      3.483     0.000     0.035   110.645
  JUN-10-2001 22:08:00      3.480     0.000     0.035   110.645
  JUN-10-2001 22:09:00      3.478     0.000     0.035   110.645
  JUN-10-2001 22:10:00      3.475     0.000     0.035   110.645
  JUN-10-2001 22:11:00      3.473     0.000     0.035   110.645
  JUN-10-2001 22:12:00      3.470     0.000     0.035   110.645
  JUN-10-2001 22:13:00      3.468     0.000     0.035   110.645
  JUN-10-2001 22:14:00      3.466     0.000     0.035   110.645
  JUN-10-2001 22:15:00      3.463     0.000     0.035   110.645
  JUN-10-2001 22:16:00      3.461     0.000     0.035   110.645
  JUN-10-2001 22:17:00      3.459     0.000     0.035   110.645
  JUN-10-2001 22:18:00      3.457     0.000     0.035   110.645
  JUN-10-2001 22:19:00      3.454     0.000     0.035   110.645
  JUN-10-2001 22:20:00      3.452     0.000     0.035   110.645
  JUN-10-2001 22:21:00      3.450     0.000     0.035   110.645
  JUN-10-2001 22:22:00      3.448     0.000     0.035   110.645
  JUN-10-2001 22:23:00      3.446     0.000     0.035   110.645
  JUN-10-2001 22:24:00      3.444     0.000     0.035   110.645
  JUN-10-2001 22:25:00      3.442     0.000     0.035   110.645
  JUN-10-2001 22:26:00      3.440     0.000     0.035   110.645
  JUN-10-2001 22:27:00      3.438     0.000     0.035   110.645
  JUN-10-2001 22:28:00      3.437     0.000     0.035   110.645
  JUN-10-2001 22:29:00      3.435     0.000     0.035   110.645
  JUN-10-2001 22:30:00      3.433     0.000     0.035   110.645
  JUN-10-2001 22:31:00      3.431     0.000     0.035   110.645
  JUN-10-2001 22:32:00      3.429     0.000     0.035   110.645
  JUN-10-2001 22:33:00      3.428     0.000     0.035   110.645
  JUN-10-2001 22:34:00      3.426     0.000     0.035   110.645
  JUN-10-2001 22:35:00      3.424     0.000     0.035   110.645
  JUN-10-2001 22:36:00      3.423     0.000     0.035   110.645
  JUN-10-2001 22:37:00      3.421     0.000     0.035   110.645
  JUN-10-2001 22:38:00      3.420     0.000     0.035   110.645
  JUN-10-2001 22:39:00      3.418     0.000     0.035   110.645
  JUN-10-2001 22:40:00      3.417     0.000     0.035   110.645
  JUN-10-2001 22:41:00      3.415     0.000     0.035   110.645
  JUN-10-2001 22:42:00      3.414     0.000     0.035   110.645
  JUN-10-2001 22:43:00      3.412     0.000     0.035   110.645
  JUN-10-2001 22:44:00      3.411     0.000     0.035   110.645
  JUN-10-2001 22:45:00      3.409     0.000     0.035   110.645
  JUN-10-2001 22:46:00      3.408     0.000     0.035   110.645
  JUN-10-2001 22:47:00      3.407     0.000     0.035   110.645
  JUN-10-2001 22:48:00      3.405     0.000     0.035   110.645
  JUN-10-2001 22:49:00      3.404     0.000     0.035   110.645
  JUN-10-2001 22:50:00      3.403     0.000     0.035   110.645
  JUN-10-2001 22:51:00      3.402     0.000     0.035   110.645
  JUN-10-2001 22:52:00      3.400     0.000     0.035   110.645
  JUN-10-2001 22:53:00      3.399     0.000     0.035   110.645
  JUN-10-2001 22:54:00      3.398     0.000     0.035   110.645
  JUN-10-2001 22:55:00      3.397     0.000     0.035   110.645
  JUN-10-2001 22:56:00      3.396     0.000     0.035   110.645
  JUN-10-2001 22:57:00      3.394     0.000     0.035   110.645
  JUN-10-2001 22:58:00      3.393     0.000     0.035   110.645
  JUN-10-2001 22:59:00      3.390     0.000     0.035   110.645
  JUN-10-2001 23:00:00      2.935     0.000     0.035   110.645
  JUN-10-2001 23:01:00      2.932     0.000     0.034   110.644
  JUN-10-2001 23:02:00      2.931     0.000     0.034   110.644
  JUN-10-2001 23:03:00      2.930     0.000     0.034   110.644
  JUN-10-2001 23:04:00      2.929     0.000     0.033   110.643
  JUN-10-2001 23:05:00      2.928     0.000     0.033   110.643
  JUN-10-2001 23:06:00      2.927     0.000     0.033   110.643
  JUN-10-2001 23:07:00      2.926     0.000     0.033   110.643
  JUN-10-2001 23:08:00      2.925     0.000     0.033   110.643
  JUN-10-2001 23:09:00      2.924     0.000     0.033   110.643
  JUN-10-2001 23:10:00      2.923     0.000     0.033   110.643
  JUN-10-2001 23:11:00      2.922     0.000     0.033   110.643
  JUN-10-2001 23:12:00      2.921     0.000     0.033   110.643
  JUN-10-2001 23:13:00      2.921     0.000     0.033   110.643
  JUN-10-2001 23:14:00      2.920     0.000     0.033   110.643
  JUN-10-2001 23:15:00      2.919     0.000     0.033   110.643
  JUN-10-2001 23:16:00      2.918     0.000     0.033   110.643
  JUN-10-2001 23:17:00      2.917     0.000     0.033   110.643
  JUN-10-2001 23:18:00      2.917     0.000     0.033   110.643
  JUN-10-2001 23:19:00      2.916     0.000     0.033   110.643
  JUN-10-2001 23:20:00      2.915     0.000     0.033   110.643
  JUN-10-2001 23:21:00      2.914     0.000     0.033   110.643
  JUN-10-2001 23:22:00      2.914     0.000     0.033   110.643
  JUN-10-2001 23:23:00      2.913     0.000     0.033   110.643
  JUN-10-2001 23:24:00      2.912     0.000     0.033   110.643
  JUN-10-2001 23:25:00      2.912     0.000     0.033   110.643
  JUN-10-2001 23:26:00      2.911     0.000     0.033   110.643
  JUN-10-2001 23:27:00      2.910     0.000     0.033   110.643
  JUN-10-2001 23:28:00      2.910     0.000     0.033   110.643
  JUN-10-2001 23:29:00      2.909     0.000     0.033   110.643
  JUN-10-2001 23:30:00      2.908     0.000     0.033   110.643
  JUN-10-2001 23:31:00      2.908     0.000     0.033   110.643
  JUN-10-2001 23:32:00      2.907     0.000     0.033   110.643
  JUN-10-2001 23:33:00      2.907     0.000     0.033   110.643
  JUN-10-2001 23:34:00      2.906     0.000     0.033   110.643
  JUN-10-2001 23:35:00      2.905     0.000     0.033   110.643
  JUN-10-2001 23:36:00      2.905     0.000     0.033   110.643
  JUN-10-2001 23:37:00      2.904     0.000     0.033   110.643
  JUN-10-2001 23:38:00      2.904     0.000     0.033   110.643
  JUN-10-2001 23:39:00      2.903     0.000     0.033   110.643
  JUN-10-2001 23:40:00      2.903     0.000     0.033   110.643
  JUN-10-2001 23:41:00      2.902     0.000     0.033   110.643
  JUN-10-2001 23:42:00      2.902     0.000     0.033   110.643
  JUN-10-2001 23:43:00      2.901     0.000     0.033   110.643
  JUN-10-2001 23:44:00      2.901     0.000     0.033   110.643
  JUN-10-2001 23:45:00      2.900     0.000     0.033   110.643
  JUN-10-2001 23:46:00      2.900     0.000     0.033   110.643
  JUN-10-2001 23:47:00      2.899     0.000     0.033   110.643
  JUN-10-2001 23:48:00      2.899     0.000     0.033   110.643
  JUN-10-2001 23:49:00      2.899     0.000     0.033   110.643
  JUN-10-2001 23:50:00      2.898     0.000     0.033   110.643
  JUN-10-2001 23:51:00      2.898     0.000     0.033   110.643
  JUN-10-2001 23:52:00      2.897     0.000     0.033   110.643
  JUN-10-2001 23:53:00      2.897     0.000     0.033   110.643
  JUN-10-2001 23:54:00      2.897     0.000     0.033   110.643
  JUN-10-2001 23:55:00      2.896     0.000     0.033   110.643
  JUN-10-2001 23:56:00      2.896     0.000     0.033   110.643
  JUN-10-2001 23:57:00      2.895     0.000     0.033   110.643
  JUN-10-2001 23:58:00      2.895     0.000     0.033   110.643
  JUN-10-2001 23:59:00      2.891     0.000     0.033   110.643
  JUN-11-2001 00:00:00      1.982     0.000     0.032   110.642
  JUN-11-2001 00:01:00      1.977     0.000     0.031   110.641
  JUN-11-2001 00:02:00      1.977     0.000     0.031   110.641
  JUN-11-2001 00:03:00      1.977     0.000     0.030   110.640
  JUN-11-2001 00:04:00      1.976     0.000     0.030   110.640
  JUN-11-2001 00:05:00      1.976     0.000     0.029   110.639
  JUN-11-2001 00:06:00      1.976     0.000     0.029   110.639
  JUN-11-2001 00:07:00      1.975     0.000     0.029   110.639
  JUN-11-2001 00:08:00      1.975     0.000     0.029   110.639
  JUN-11-2001 00:09:00      1.975     0.000     0.029   110.639
  JUN-11-2001 00:10:00      1.974     0.000     0.029   110.639
  JUN-11-2001 00:11:00      1.974     0.000     0.029   110.639
  JUN-11-2001 00:12:00      1.974     0.000     0.029   110.639
  JUN-11-2001 00:13:00      1.974     0.000     0.028   110.638
  JUN-11-2001 00:14:00      1.973     0.000     0.028   110.638
  JUN-11-2001 00:15:00      1.973     0.000     0.028   110.638
  JUN-11-2001 00:16:00      1.973     0.000     0.028   110.638
  JUN-11-2001 00:17:00      1.973     0.000     0.028   110.638
  JUN-11-2001 00:18:00      1.972     0.000     0.028   110.638
  JUN-11-2001 00:19:00      1.972     0.000     0.028   110.638
  JUN-11-2001 00:20:00      1.972     0.000     0.028   110.638
  JUN-11-2001 00:21:00      1.972     0.000     0.028   110.638
  JUN-11-2001 00:22:00      1.971     0.000     0.028   110.638
  JUN-11-2001 00:23:00      1.971     0.000     0.028   110.638
  JUN-11-2001 00:24:00      1.971     0.000     0.028   110.638
  JUN-11-2001 00:25:00      1.971     0.000     0.028   110.638
  JUN-11-2001 00:26:00      1.971     0.000     0.028   110.638
  JUN-11-2001 00:27:00      1.970     0.000     0.028   110.638
  JUN-11-2001 00:28:00      1.970     0.000     0.028   110.638
  JUN-11-2001 00:29:00      1.970     0.000     0.028   110.638
  JUN-11-2001 00:30:00      1.960     0.000     0.028   110.638
  JUN-11-2001 00:31:00      1.960     0.000     0.028   110.638
  JUN-11-2001 00:32:00      1.960     0.000     0.028   110.638
  JUN-11-2001 00:33:00      1.960     0.000     0.028   110.638
  JUN-11-2001 00:34:00      1.960     0.000     0.028   110.638
  JUN-11-2001 00:35:00      1.960     0.000     0.028   110.638
  JUN-11-2001 00:36:00      1.960     0.000     0.028   110.638
  JUN-11-2001 00:37:00      1.960     0.000     0.028   110.638
  JUN-11-2001 00:38:00      1.960     0.000     0.028   110.638
  JUN-11-2001 00:39:00      1.960     0.000     0.028   110.638
  JUN-11-2001 00:40:00      1.960     0.000     0.028   110.638
  JUN-11-2001 00:41:00      1.960     0.000     0.028   110.638
  JUN-11-2001 00:42:00      1.960     0.000     0.028   110.638
  JUN-11-2001 00:43:00      1.960     0.000     0.028   110.638
  JUN-11-2001 00:44:00      1.960     0.000     0.028   110.638
  JUN-11-2001 00:45:00      1.960     0.000     0.028   110.638
  JUN-11-2001 00:46:00      1.960     0.000     0.028   110.638
  JUN-11-2001 00:47:00      1.960     0.000     0.028   110.638
  JUN-11-2001 00:48:00      1.960     0.000     0.028   110.638
  JUN-11-2001 00:49:00      1.960     0.000     0.028   110.638
  JUN-11-2001 00:50:00      1.960     0.000     0.028   110.638
  JUN-11-2001 00:51:00      1.960     0.000     0.028   110.638
  JUN-11-2001 00:52:00      1.960     0.000     0.028   110.638
  JUN-11-2001 00:53:00      1.960     0.000     0.028   110.638
  JUN-11-2001 00:54:00      1.960     0.000     0.028   110.638
  JUN-11-2001 00:55:00      1.960     0.000     0.028   110.638
  JUN-11-2001 00:56:00      1.960     0.000     0.028   110.638
  JUN-11-2001 00:57:00      1.960     0.000     0.028   110.638
  JUN-11-2001 00:58:00      1.960     0.000     0.028   110.638
  JUN-11-2001 00:59:00      1.960     0.000     0.028   110.638
  JUN-11-2001 01:00:00      1.960     0.000     0.028   110.638
  JUN-11-2001 01:01:00      1.960     0.000     0.028   110.638
  JUN-11-2001 01:02:00      1.960     0.000     0.028   110.638
  JUN-11-2001 01:03:00      1.960     0.000     0.028   110.638
  JUN-11-2001 01:04:00      1.960     0.000     0.028   110.638
  JUN-11-2001 01:05:00      1.960     0.000     0.028   110.638
  JUN-11-2001 01:06:00      1.960     0.000     0.028   110.638
  JUN-11-2001 01:07:00      1.960     0.000     0.028   110.638
  JUN-11-2001 01:08:00      1.960     0.000     0.028   110.638
  JUN-11-2001 01:09:00      1.960     0.000     0.028   110.638
  JUN-11-2001 01:10:00      1.960     0.000     0.028   110.638
  JUN-11-2001 01:11:00      1.960     0.000     0.028   110.638
  JUN-11-2001 01:12:00      1.960     0.000     0.028   110.638
  JUN-11-2001 01:13:00      1.960     0.000     0.028   110.638
  JUN-11-2001 01:14:00      1.960     0.000     0.028   110.638
  JUN-11-2001 01:15:00      1.960     0.000     0.028   110.638
  JUN-11-2001 01:16:00      1.960     0.000     0.028   110.638
  JUN-11-2001 01:17:00      1.960     0.000     0.028   110.638
  JUN-11-2001 01:18:00      1.960     0.000     0.028   110.638
  JUN-11-2001 01:19:00      1.960     0.000     0.028   110.638
  JUN-11-2001 01:20:00      1.960     0.000     0.028   110.638
  JUN-11-2001 01:21:00      1.960     0.000     0.028   110.638
  JUN-11-2001 01:22:00      1.960     0.000     0.028   110.638
  JUN-11-2001 01:23:00      1.960     0.000     0.028   110.638
  JUN-11-2001 01:24:00      1.960     0.000     0.028   110.638
  JUN-11-2001 01:25:00      1.960     0.000     0.028   110.638
  JUN-11-2001 01:26:00      1.960     0.000     0.028   110.638
  JUN-11-2001 01:27:00      1.960     0.000     0.028   110.638
  JUN-11-2001 01:28:00      1.960     0.000     0.028   110.638
  JUN-11-2001 01:29:00      1.960     0.000     0.028   110.638
  JUN-11-2001 01:30:00      1.960     0.000     0.028   110.638
  JUN-11-2001 01:31:00      1.960     0.000     0.028   110.638
  JUN-11-2001 01:32:00      1.960     0.000     0.028   110.638
  JUN-11-2001 01:33:00      1.960     0.000     0.028   110.638
  JUN-11-2001 01:34:00      1.960     0.000     0.028   110.638
  JUN-11-2001 01:35:00      1.960     0.000     0.028   110.638
  JUN-11-2001 01:36:00      1.960     0.000     0.028   110.638
  JUN-11-2001 01:37:00      1.960     0.000     0.028   110.638
  JUN-11-2001 01:38:00      1.960     0.000     0.028   110.638
  JUN-11-2001 01:39:00      1.960     0.000     0.028   110.638
  JUN-11-2001 01:40:00      1.960     0.000     0.028   110.638
  JUN-11-2001 01:41:00      1.960     0.000     0.028   110.638
  JUN-11-2001 01:42:00      1.960     0.000     0.028   110.638
  JUN-11-2001 01:43:00      1.960     0.000     0.028   110.638
  JUN-11-2001 01:44:00      1.960     0.000     0.028   110.638
  JUN-11-2001 01:45:00      1.960     0.000     0.028   110.638
  JUN-11-2001 01:46:00      1.960     0.000     0.028   110.638
  JUN-11-2001 01:47:00      1.960     0.000     0.028   110.638
  JUN-11-2001 01:48:00      1.960     0.000     0.028   110.638
  JUN-11-2001 01:49:00      1.960     0.000     0.028   110.638
  JUN-11-2001 01:50:00      1.960     0.000     0.028   110.638
  JUN-11-2001 01:51:00      1.960     0.000     0.028   110.638
  JUN-11-2001 01:52:00      1.960     0.000     0.028   110.638
  JUN-11-2001 01:53:00      1.960     0.000     0.028   110.638
  JUN-11-2001 01:54:00      1.960     0.000     0.028   110.638
  JUN-11-2001 01:55:00      1.960     0.000     0.028   110.638
  JUN-11-2001 01:56:00      1.960     0.000     0.028   110.638
  JUN-11-2001 01:57:00      1.960     0.000     0.028   110.638
  JUN-11-2001 01:58:00      1.960     0.000     0.028   110.638
  JUN-11-2001 01:59:00      1.962     0.000     0.028   110.638
  JUN-11-2001 02:00:00      2.416     0.000     0.028   110.638
  JUN-11-2001 02:01:00      2.418     0.000     0.029   110.639
  JUN-11-2001 02:02:00      2.418     0.000     0.029   110.639
  JUN-11-2001 02:03:00      2.418     0.000     0.030   110.640
  JUN-11-2001 02:04:00      2.418     0.000     0.030   110.640
  JUN-11-2001 02:05:00      2.418     0.000     0.030   110.640
  JUN-11-2001 02:06:00      2.418     0.000     0.030   110.640
  JUN-11-2001 02:07:00      2.418     0.000     0.030   110.640
  JUN-11-2001 02:08:00      2.418     0.000     0.030   110.640
  JUN-11-2001 02:09:00      2.418     0.000     0.030   110.640
  JUN-11-2001 02:10:00      2.418     0.000     0.030   110.640
  JUN-11-2001 02:11:00      2.418     0.000     0.030   110.640
  JUN-11-2001 02:12:00      2.418     0.000     0.030   110.640
  JUN-11-2001 02:13:00      2.418     0.000     0.031   110.641
  JUN-11-2001 02:14:00      2.418     0.000     0.031   110.641
  JUN-11-2001 02:15:00      2.418     0.000     0.031   110.641
  JUN-11-2001 02:16:00      2.418     0.000     0.031   110.641
  JUN-11-2001 02:17:00      2.418     0.000     0.031   110.641
  JUN-11-2001 02:18:00      2.418     0.000     0.031   110.641
  JUN-11-2001 02:19:00      2.418     0.000     0.031   110.641
  JUN-11-2001 02:20:00      2.418     0.000     0.031   110.641
  JUN-11-2001 02:21:00      2.418     0.000     0.031   110.641
  JUN-11-2001 02:22:00      2.418     0.000     0.031   110.641
  JUN-11-2001 02:23:00      2.418     0.000     0.031   110.641
  JUN-11-2001 02:24:00      2.418     0.000     0.031   110.641
  JUN-11-2001 02:25:00      2.418     0.000     0.031   110.641
  JUN-11-2001 02:26:00      2.418     0.000     0.031   110.641
  JUN-11-2001 02:27:00      2.418     0.000     0.031   110.641
  JUN-11-2001 02:28:00      2.418     0.000     0.031   110.641
  JUN-11-2001 02:29:00      2.418     0.000     0.031   110.641
  JUN-11-2001 02:30:00      2.418     0.000     0.031   110.641
  JUN-11-2001 02:31:00      2.418     0.000     0.031   110.641
  JUN-11-2001 02:32:00      2.418     0.000     0.031   110.641
  JUN-11-2001 02:33:00      2.418     0.000     0.031   110.641
  JUN-11-2001 02:34:00      2.418     0.000     0.031   110.641
  JUN-11-2001 02:35:00      2.418     0.000     0.031   110.641
  JUN-11-2001 02:36:00      2.418     0.000     0.031   110.641
  JUN-11-2001 02:37:00      2.418     0.000     0.031   110.641
  JUN-11-2001 02:38:00      2.418     0.000     0.031   110.641
  JUN-11-2001 02:39:00      2.418     0.000     0.031   110.641
  JUN-11-2001 02:40:00      2.418     0.000     0.031   110.641
  JUN-11-2001 02:41:00      2.418     0.000     0.031   110.641
  JUN-11-2001 02:42:00      2.418     0.000     0.031   110.641
  JUN-11-2001 02:43:00      2.418     0.000     0.031   110.641
  JUN-11-2001 02:44:00      2.418     0.000     0.031   110.641
  JUN-11-2001 02:45:00      2.418     0.000     0.031   110.641
  JUN-11-2001 02:46:00      2.418     0.000     0.031   110.641
  JUN-11-2001 02:47:00      2.418     0.000     0.031   110.641
  JUN-11-2001 02:48:00      2.418     0.000     0.031   110.641
  JUN-11-2001 02:49:00      2.418     0.000     0.031   110.641
  JUN-11-2001 02:50:00      2.418     0.000     0.031   110.641
  JUN-11-2001 02:51:00      2.418     0.000     0.031   110.641
  JUN-11-2001 02:52:00      2.418     0.000     0.031   110.641
  JUN-11-2001 02:53:00      2.418     0.000     0.031   110.641
  JUN-11-2001 02:54:00      2.418     0.000     0.031   110.641
  JUN-11-2001 02:55:00      2.418     0.000     0.031   110.641
  JUN-11-2001 02:56:00      2.418     0.000     0.031   110.641
  JUN-11-2001 02:57:00      2.418     0.000     0.031   110.641
  JUN-11-2001 02:58:00      2.418     0.000     0.031   110.641
  JUN-11-2001 02:59:00      2.420     0.000     0.031   110.641
  JUN-11-2001 03:00:00      2.875     0.000     0.031   110.641
  JUN-11-2001 03:01:00      2.877     0.000     0.031   110.641
  JUN-11-2001 03:02:00      2.877     0.000     0.032   110.642
  JUN-11-2001 03:03:00      2.877     0.000     0.032   110.642
  JUN-11-2001 03:04:00      2.877     0.000     0.032   110.642
  JUN-11-2001 03:05:00      2.877     0.000     0.032   110.642
  JUN-11-2001 03:06:00      2.877     0.000     0.032   110.642
  JUN-11-2001 03:07:00      2.877     0.000     0.032   110.642
  JUN-11-2001 03:08:00      2.877     0.000     0.033   110.643
  JUN-11-2001 03:09:00      2.877     0.000     0.033   110.643
  JUN-11-2001 03:10:00      2.886     0.000     0.033   110.643
  JUN-11-2001 03:11:00      2.886     0.000     0.033   110.643
  JUN-11-2001 03:12:00      2.886     0.000     0.033   110.643
  JUN-11-2001 03:13:00      2.886     0.000     0.033   110.643
  JUN-11-2001 03:14:00      2.886     0.000     0.033   110.643
  JUN-11-2001 03:15:00      2.877     0.000     0.033   110.643
  JUN-11-2001 03:16:00      2.877     0.000     0.033   110.643
  JUN-11-2001 03:17:00      2.877     0.000     0.033   110.643
  JUN-11-2001 03:18:00      2.877     0.000     0.033   110.643
  JUN-11-2001 03:19:00      2.877     0.000     0.033   110.643
  JUN-11-2001 03:20:00      2.885     0.000     0.033   110.643
  JUN-11-2001 03:21:00      2.885     0.000     0.033   110.643
  JUN-11-2001 03:22:00      2.885     0.000     0.033   110.643
  JUN-11-2001 03:23:00      2.885     0.000     0.033   110.643
  JUN-11-2001 03:24:00      2.885     0.000     0.033   110.643
  JUN-11-2001 03:25:00      2.877     0.000     0.033   110.643
  JUN-11-2001 03:26:00      2.877     0.000     0.033   110.643
  JUN-11-2001 03:27:00      2.877     0.000     0.033   110.643
  JUN-11-2001 03:28:00      2.877     0.000     0.033   110.643
  JUN-11-2001 03:29:00      2.877     0.000     0.033   110.643
  JUN-11-2001 03:30:00      2.885     0.000     0.033   110.643
  JUN-11-2001 03:31:00      2.884     0.000     0.033   110.643
  JUN-11-2001 03:32:00      2.884     0.000     0.033   110.643
  JUN-11-2001 03:33:00      2.884     0.000     0.033   110.643
  JUN-11-2001 03:34:00      2.884     0.000     0.033   110.643
  JUN-11-2001 03:35:00      2.877     0.000     0.033   110.643
  JUN-11-2001 03:36:00      2.877     0.000     0.033   110.643
  JUN-11-2001 03:37:00      2.877     0.000     0.033   110.643
  JUN-11-2001 03:38:00      2.877     0.000     0.033   110.643
  JUN-11-2001 03:39:00      2.877     0.000     0.033   110.643
  JUN-11-2001 03:40:00      2.884     0.000     0.033   110.643
  JUN-11-2001 03:41:00      2.884     0.000     0.033   110.643
  JUN-11-2001 03:42:00      2.884     0.000     0.033   110.643
  JUN-11-2001 03:43:00      2.883     0.000     0.033   110.643
  JUN-11-2001 03:44:00      2.883     0.000     0.033   110.643
  JUN-11-2001 03:45:00      2.877     0.000     0.033   110.643
  JUN-11-2001 03:46:00      2.877     0.000     0.033   110.643
  JUN-11-2001 03:47:00      2.877     0.000     0.033   110.643
  JUN-11-2001 03:48:00      2.877     0.000     0.033   110.643
  JUN-11-2001 03:49:00      2.877     0.000     0.033   110.643
  JUN-11-2001 03:50:00      2.877     0.000     0.033   110.643
  JUN-11-2001 03:51:00      2.877     0.000     0.033   110.643
  JUN-11-2001 03:52:00      2.877     0.000     0.033   110.643
[...]
  JUN-16-2001 18:56:00     12.842     0.660     0.061       6.1
  JUN-16-2001 18:57:00     12.647     0.658     0.060       6.0
  JUN-16-2001 18:58:00     12.474     0.655     0.060       6.0
  JUN-16-2001 18:59:00     12.313     0.652     0.059       5.9
  JUN-16-2001 19:00:00     11.944     0.647     0.058       5.8
  JUN-16-2001 19:01:00     11.395     0.637     0.057       5.7
  JUN-16-2001 19:02:00     11.004     0.630     0.056       5.6
  JUN-16-2001 19:03:00     10.714     0.625     0.055       5.5
  JUN-16-2001 19:04:00     10.491     0.620     0.055       5.5
  JUN-16-2001 19:05:00     10.314     0.617     0.054       5.4
  JUN-16-2001 19:06:00     10.170     0.614     0.054       5.4
  JUN-16-2001 19:07:00     10.049     0.612     0.054       5.4
  JUN-16-2001 19:08:00      9.944     0.610     0.053       5.3
  JUN-16-2001 19:09:00      9.853     0.608     0.053       5.3
  JUN-16-2001 19:10:00      9.772     0.607     0.053       5.3
  JUN-16-2001 19:11:00      9.699     0.605     0.053       5.3
  JUN-16-2001 19:12:00      9.633     0.604     0.053       5.3
  JUN-16-2001 19:13:00      9.574     0.603     0.052       5.2
  JUN-16-2001 19:14:00      9.519     0.602     0.052       5.2
  JUN-16-2001 19:15:00      9.468     0.601     0.052       5.2
  JUN-16-2001 19:16:00      9.422     0.600     0.052       5.2
  JUN-16-2001 19:17:00      9.380     0.599     0.052       5.2
  JUN-16-2001 19:18:00      9.340     0.598     0.052       5.2
  JUN-16-2001 19:19:00      9.304     0.597     0.052       5.2
  JUN-16-2001 19:20:00      9.270     0.597     0.052       5.2
  JUN-16-2001 19:21:00      9.239     0.596     0.051       5.1
  JUN-16-2001 19:22:00      9.210     0.595     0.051       5.1
  JUN-16-2001 19:23:00      9.182     0.595     0.051       5.1
  JUN-16-2001 19:24:00      9.157     0.594     0.051       5.1
  JUN-16-2001 19:25:00      9.133     0.594     0.051       5.1
  JUN-16-2001 19:26:00      9.111     0.593     0.051       5.1
  JUN-16-2001 19:27:00      9.090     0.593     0.051       5.1
  JUN-16-2001 19:28:00      9.070     0.592     0.051       5.1
  JUN-16-2001 19:29:00      9.052     0.592     0.051       5.1
  JUN-16-2001 19:30:00      9.034     0.592     0.051       5.1
  JUN-16-2001 19:31:00      9.017     0.591     0.051       5.1
  JUN-16-2001 19:32:00      9.002     0.591     0.051       5.1
  JUN-16-2001 19:33:00      8.987     0.591     0.051       5.1
  JUN-16-2001 19:34:00      8.972     0.590     0.051       5.1
  JUN-16-2001 19:35:00      8.958     0.590     0.051       5.1
  JUN-16-2001 19:36:00      8.945     0.590     0.051       5.1
  JUN-16-2001 19:37:00      8.932     0.589     0.051       5.1
  JUN-16-2001 19:38:00      8.920     0.589     0.051       5.1
  JUN-16-2001 19:39:00      8.908     0.589     0.051       5.1
  JUN-16-2001 19:40:00      8.896     0.589     0.051       5.1
  JUN-16-2001 19:41:00      8.885     0.588     0.051       5.1
  JUN-16-2001 19:42:00      8.874     0.588     0.051       5.1
  JUN-16-2001 19:43:00      8.864     0.588     0.050       5.0
  JUN-16-2001 19:44:00      8.853     0.588     0.050       5.0
  JUN-16-2001 19:45:00      8.843     0.588     0.050       5.0
  JUN-16-2001 19:46:00      8.833     0.587     0.050       5.0
  JUN-16-2001 19:47:00      8.824     0.587     0.050       5.0
  JUN-16-2001 19:48:00      8.814     0.587     0.050       5.0
  JUN-16-2001 19:49:00      8.804     0.587     0.050       5.0
  JUN-16-2001 19:50:00      8.795     0.587     0.050       5.0
  JUN-16-2001 19:51:00      8.786     0.586     0.050       5.0
  JUN-16-2001 19:52:00      8.776     0.586     0.050       5.0
  JUN-16-2001 19:53:00      8.767     0.586     0.050       5.0
  JUN-16-2001 19:54:00      8.758     0.586     0.050       5.0
  JUN-16-2001 19:55:00      8.750     0.586     0.050       5.0
  JUN-16-2001 19:56:00      8.741     0.585     0.050       5.0
  JUN-16-2001 19:57:00      8.732     0.585     0.050       5.0
  JUN-16-2001 19:58:00      8.723     0.585     0.050       5.0
  JUN-16-2001 19:59:00      8.715     0.585     0.050       5.0
  JUN-16-2001 20:00:00      8.443     0.580     0.049       4.9
  JUN-16-2001 20:01:00      7.920     0.568     0.048       4.8
  JUN-16-2001 20:02:00      7.563     0.559     0.047       4.7
  JUN-16-2001 20:03:00      7.322     0.553     0.046       4.6
  JUN-16-2001 20:04:00      7.159     0.549     0.046       4.6
  JUN-16-2001 20:05:00      7.047     0.546     0.046       4.6
  JUN-16-2001 20:06:00      6.969     0.544     0.045       4.5
  JUN-16-2001 20:07:00      6.913     0.542     0.045       4.5
  JUN-16-2001 20:08:00      6.874     0.541     0.045       4.5
  JUN-16-2001 20:09:00      6.844     0.540     0.045       4.5
  JUN-16-2001 20:10:00      6.821     0.540     0.045       4.5
  JUN-16-2001 20:11:00      6.803     0.539     0.045       4.5
  JUN-16-2001 20:12:00      6.789     0.539     0.045       4.5
  JUN-16-2001 20:13:00      6.776     0.538     0.045       4.5
  JUN-16-2001 20:14:00      6.765     0.538     0.045       4.5
  JUN-16-2001 20:15:00      6.756     0.538     0.045       4.5
  JUN-16-2001 20:16:00      6.746     0.537     0.045       4.5
  JUN-16-2001 20:17:00      6.738     0.537     0.045       4.5
  JUN-16-2001 20:18:00      6.729     0.537     0.045       4.5
  JUN-16-2001 20:19:00      6.721     0.537     0.045       4.5
  JUN-16-2001 20:20:00      6.713     0.537     0.045       4.5
  JUN-16-2001 20:21:00      6.706     0.536     0.045       4.5
  JUN-16-2001 20:22:00      6.698     0.536     0.045       4.5
  JUN-16-2001 20:23:00      6.690     0.536     0.045       4.5
  JUN-16-2001 20:24:00      6.683     0.536     0.044       4.4
  JUN-16-2001 20:25:00      6.675     0.536     0.044       4.4
  JUN-16-2001 20:26:00      6.668     0.535     0.044       4.4
  JUN-16-2001 20:27:00      6.661     0.535     0.044       4.4
  JUN-16-2001 20:28:00      6.653     0.535     0.044       4.4
  JUN-16-2001 20:29:00      6.646     0.535     0.044       4.4
  JUN-16-2001 20:30:00      6.639     0.535     0.044       4.4
  JUN-16-2001 20:31:00      6.632     0.534     0.044       4.4
  JUN-16-2001 20:32:00      6.625     0.534     0.044       4.4
  JUN-16-2001 20:33:00      6.618     0.534     0.044       4.4
  JUN-16-2001 20:34:00      6.611     0.534     0.044       4.4
  JUN-16-2001 20:35:00      6.604     0.534     0.044       4.4
  JUN-16-2001 20:36:00      6.597     0.533     0.044       4.4
  JUN-16-2001 20:37:00      6.591     0.533     0.044       4.4
  JUN-16-2001 20:38:00      6.584     0.533     0.044       4.4
  JUN-16-2001 20:39:00      6.577     0.533     0.044       4.4
  JUN-16-2001 20:40:00      6.571     0.533     0.044       4.4
  JUN-16-2001 20:41:00      6.564     0.533     0.044       4.4
  JUN-16-2001 20:42:00      6.558     0.532     0.044       4.4
  JUN-16-2001 20:43:00      6.551     0.532     0.044       4.4
  JUN-16-2001 20:44:00      6.545     0.532     0.044       4.4
  JUN-16-2001 20:45:00      6.539     0.532     0.044       4.4
  JUN-16-2001 20:46:00      6.533     0.532     0.044       4.4
  JUN-16-2001 20:47:00      6.527     0.531     0.044       4.4
  JUN-16-2001 20:48:00      6.520     0.531     0.044       4.4
  JUN-16-2001 20:49:00      6.514     0.531     0.044       4.4
  JUN-16-2001 20:50:00      6.508     0.531     0.044       4.4
  JUN-16-2001 20:51:00      6.502     0.531     0.044       4.4
  JUN-16-2001 20:52:00      6.497     0.531     0.044       4.4
  JUN-16-2001 20:53:00      6.491     0.530     0.044       4.4
  JUN-16-2001 20:54:00      6.485     0.530     0.044       4.4
  JUN-16-2001 20:55:00      6.479     0.530     0.044       4.4
  JUN-16-2001 20:56:00      6.474     0.530     0.044       4.4
  JUN-16-2001 20:57:00      6.468     0.530     0.044       4.4
  JUN-16-2001 20:58:00      6.463     0.530     0.044       4.4
  JUN-16-2001 20:59:00      6.457     0.530     0.044       4.4
  JUN-16-2001 21:00:00      6.202     0.524     0.043       4.3
  JUN-16-2001 21:01:00      5.710     0.509     0.042       4.2
  JUN-16-2001 21:02:00      5.365     0.500     0.040       4.0
  JUN-16-2001 21:03:00      5.076     0.500     0.039       3.9
  JUN-16-2001 21:04:00      4.904     0.499     0.038       3.8
  JUN-16-2001 21:05:00      4.796     0.499     0.038       3.8
  JUN-16-2001 21:06:00      4.721     0.499     0.037       3.7
  JUN-16-2001 21:07:00      4.670     0.499     0.037       3.7
  JUN-16-2001 21:08:00      4.635     0.499     0.037       3.7
  JUN-16-2001 21:09:00      4.611     0.499     0.037       3.7
  JUN-16-2001 21:10:00      4.593     0.499     0.037       3.7
  JUN-16-2001 21:11:00      4.579     0.499     0.036       3.6
  JUN-16-2001 21:12:00      4.569     0.499     0.036       3.6
  JUN-16-2001 21:13:00      4.561     0.499     0.036       3.6
  JUN-16-2001 21:14:00      4.554     0.499     0.036       3.6
  JUN-16-2001 21:15:00      4.547     0.499     0.036       3.6
  JUN-16-2001 21:16:00      4.542     0.499     0.036       3.6
  JUN-16-2001 21:17:00      4.537     0.499     0.036       3.6
  JUN-16-2001 21:18:00      4.532     0.499     0.036       3.6
  JUN-16-2001 21:19:00      4.527     0.499     0.036       3.6
  JUN-16-2001 21:20:00      4.522     0.499     0.036       3.6
  JUN-16-2001 21:21:00      4.518     0.498     0.036       3.6
  JUN-16-2001 21:22:00      4.514     0.498     0.036       3.6
  JUN-16-2001 21:23:00      4.510     0.498     0.036       3.6
  JUN-16-2001 21:24:00      4.506     0.498     0.036       3.6
  JUN-16-2001 21:25:00      4.502     0.498     0.036       3.6
  JUN-16-2001 21:26:00      4.498     0.498     0.036       3.6
  JUN-16-2001 21:27:00      4.494     0.498     0.036       3.6
  JUN-16-2001 21:28:00      4.490     0.498     0.036       3.6
  JUN-16-2001 21:29:00      4.486     0.498     0.036       3.6
  JUN-16-2001 21:30:00      4.483     0.498     0.036       3.6
  JUN-16-2001 21:31:00      4.479     0.498     0.036       3.6
  JUN-16-2001 21:32:00      4.476     0.498     0.036       3.6
  JUN-16-2001 21:33:00      4.472     0.498     0.036       3.6
  JUN-16-2001 21:34:00      4.469     0.498     0.036       3.6
  JUN-16-2001 21:35:00      4.465     0.498     0.036       3.6
  JUN-16-2001 21:36:00      4.462     0.498     0.036       3.6
  JUN-16-2001 21:37:00      4.458     0.498     0.036       3.6
  JUN-16-2001 21:38:00      4.455     0.498     0.036       3.6
  JUN-16-2001 21:39:00      4.452     0.498     0.036       3.6
  JUN-16-2001 21:40:00      4.448     0.498     0.036       3.6
  JUN-16-2001 21:41:00      4.445     0.498     0.036       3.6
  JUN-16-2001 21:42:00      4.442     0.498     0.036       3.6
  JUN-16-2001 21:43:00      4.439     0.498     0.036       3.6
  JUN-16-2001 21:44:00      4.436     0.498     0.036       3.6
  JUN-16-2001 21:45:00      4.433     0.498     0.036       3.6
  JUN-16-2001 21:46:00      4.430     0.498     0.036       3.6
  JUN-16-2001 21:47:00      4.427     0.498     0.036       3.6
  JUN-16-2001 21:48:00      4.424     0.498     0.036       3.6
  JUN-16-2001 21:49:00      4.421     0.498     0.036       3.6
  JUN-16-2001 21:50:00      4.418     0.498     0.036       3.6
  JUN-16-2001 21:51:00      4.416     0.498     0.036       3.6
  JUN-16-2001 21:52:00      4.413     0.498     0.036       3.6
  JUN-16-2001 21:53:00      4.410     0.498     0.036       3.6
  JUN-16-2001 21:54:00      4.408     0.498     0.036       3.6
  JUN-16-2001 21:55:00      4.405     0.498     0.036       3.6
  JUN-16-2001 21:56:00      4.402     0.498     0.036       3.6
  JUN-16-2001 21:57:00      4.400     0.498     0.036       3.6
  JUN-16-2001 21:58:00      4.397     0.498     0.035       3.5
  JUN-16-2001 21:59:00      4.395     0.498     0.035       3.5
  JUN-16-2001 22:00:00      4.266     0.499     0.035       3.5
  JUN-16-2001 22:01:00      4.018     0.498     0.033       3.3
  JUN-16-2001 22:02:00      3.849     0.497     0.032       3.2
  JUN-16-2001 22:03:00      3.734     0.496     0.032       3.2
  JUN-16-2001 22:04:00      3.654     0.496     0.031       3.1
  JUN-16-2001 22:05:00      3.598     0.495     0.031       3.1
  JUN-16-2001 22:06:00      3.557     0.495     0.031       3.1
  JUN-16-2001 22:07:00      3.528     0.495     0.031       3.1
  JUN-16-2001 22:08:00      3.507     0.495     0.031       3.1
  JUN-16-2001 22:09:00      3.491     0.494     0.031       3.1
  JUN-16-2001 22:10:00      3.479     0.494     0.030       3.0
  JUN-16-2001 22:11:00      3.470     0.494     0.030       3.0
  JUN-16-2001 22:12:00      3.463     0.494     0.030       3.0
  JUN-16-2001 22:13:00      3.457     0.494     0.030       3.0
  JUN-16-2001 22:14:00      3.453     0.494     0.030       3.0
  JUN-16-2001 22:15:00      3.449     0.494     0.030       3.0
  JUN-16-2001 22:16:00      3.446     0.494     0.030       3.0
  JUN-16-2001 22:17:00      3.443     0.494     0.030       3.0
  JUN-16-2001 22:18:00      3.441     0.494     0.030       3.0
  JUN-16-2001 22:19:00      3.438     0.494     0.030       3.0
  JUN-16-2001 22:20:00      3.436     0.494     0.030       3.0
  JUN-16-2001 22:21:00      3.434     0.494     0.030       3.0
  JUN-16-2001 22:22:00      3.432     0.494     0.030       3.0
  JUN-16-2001 22:23:00      3.431     0.494     0.030       3.0
  JUN-16-2001 22:24:00      3.429     0.494     0.030       3.0
  JUN-16-2001 22:25:00      3.427     0.494     0.030       3.0
  JUN-16-2001 22:26:00      3.425     0.494     0.030       3.0
  JUN-16-2001 22:27:00      3.424     0.494     0.030       3.0
  JUN-16-2001 22:28:00      3.422     0.494     0.030       3.0
  JUN-16-2001 22:29:00      3.421     0.494     0.030       3.0
  JUN-16-2001 22:30:00      3.419     0.494     0.030       3.0
  JUN-16-2001 22:31:00      3.418     0.494     0.030       3.0
  JUN-16-2001 22:32:00      3.416     0.494     0.030       3.0
  JUN-16-2001 22:33:00      3.415     0.494     0.030       3.0
  JUN-16-2001 22:34:00      3.413     0.494     0.030       3.0
  JUN-16-2001 22:35:00      3.412     0.494     0.030       3.0
  JUN-16-2001 22:36:00      3.411     0.494     0.030       3.0
  JUN-16-2001 22:37:00      3.409     0.494     0.030       3.0
  JUN-16-2001 22:38:00      3.408     0.494     0.030       3.0
  JUN-16-2001 22:39:00      3.407     0.494     0.030       3.0
  JUN-16-2001 22:40:00      3.405     0.494     0.030       3.0
  JUN-16-2001 22:41:00      3.404     0.494     0.030       3.0
  JUN-16-2001 22:42:00      3.403     0.494     0.030       3.0
  JUN-16-2001 22:43:00      3.402     0.494     0.030       3.0
  JUN-16-2001 22:44:00      3.400     0.494     0.030       3.0
  JUN-16-2001 22:45:00      3.399     0.494     0.030       3.0
  JUN-16-2001 22:46:00      3.398     0.494     0.030       3.0
  JUN-16-2001 22:47:00      3.397     0.494     0.030       3.0
  JUN-16-2001 22:48:00      3.396     0.494     0.030       3.0
  JUN-16-2001 22:49:00      3.395     0.494     0.030       3.0
  JUN-16-2001 22:50:00      3.393     0.494     0.030       3.0
  JUN-16-2001 22:51:00      3.392     0.494     0.030       3.0
  JUN-16-2001 22:52:00      3.391     0.494     0.030       3.0
  JUN-16-2001 22:53:00      3.390     0.494     0.030       3.0
  JUN-16-2001 22:54:00      3.389     0.494     0.030       3.0
  JUN-16-2001 22:55:00      3.388     0.494     0.030       3.0
  JUN-16-2001 22:56:00      3.387     0.494     0.030       3.0
  JUN-16-2001 22:57:00      3.386     0.494     0.030       3.0
  JUN-16-2001 22:58:00      3.386     0.494     0.030       3.0
  JUN-16-2001 22:59:00      3.385     0.494     0.030       3.0
  JUN-16-2001 23:00:00      3.329     0.494     0.030       3.0
  JUN-16-2001 23:01:00      3.218     0.493     0.029       2.9
  JUN-16-2001 23:02:00      3.138     0.492     0.029       2.9
  JUN-16-2001 23:03:00      3.080     0.492     0.028       2.8
  JUN-16-2001 23:04:00      3.038     0.491     0.028       2.8
  JUN-16-2001 23:05:00      3.007     0.491     0.028       2.8
  JUN-16-2001 23:06:00      2.984     0.491     0.028       2.8
  JUN-16-2001 23:07:00      2.967     0.490     0.028       2.8
  JUN-16-2001 23:08:00      2.954     0.490     0.027       2.7
  JUN-16-2001 23:09:00      2.944     0.490     0.027       2.7
  JUN-16-2001 23:10:00      2.936     0.490     0.027       2.7
  JUN-16-2001 23:11:00      2.931     0.490     0.027       2.7
  JUN-16-2001 23:12:00      2.926     0.490     0.027       2.7
  JUN-16-2001 23:13:00      2.923     0.490     0.027       2.7
  JUN-16-2001 23:14:00      2.920     0.490     0.027       2.7
  JUN-16-2001 23:15:00      2.918     0.490     0.027       2.7
  JUN-16-2001 23:16:00      2.916     0.490     0.027       2.7
  JUN-16-2001 23:17:00      2.915     0.490     0.027       2.7
  JUN-16-2001 23:18:00      2.913     0.490     0.027       2.7
  JUN-16-2001 23:19:00      2.912     0.490     0.027       2.7
  JUN-16-2001 23:20:00      2.911     0.490     0.027       2.7
  JUN-16-2001 23:21:00      2.910     0.490     0.027       2.7
  JUN-16-2001 23:22:00      2.910     0.490     0.027       2.7
  JUN-16-2001 23:23:00      2.909     0.490     0.027       2.7
  JUN-16-2001 23:24:00      2.908     0.490     0.027       2.7
  JUN-16-2001 23:25:00      2.908     0.490     0.027       2.7
  JUN-16-2001 23:26:00      2.907     0.490     0.027       2.7
  JUN-16-2001 23:27:00      2.906     0.490     0.027       2.7
  JUN-16-2001 23:28:00      2.906     0.490     0.027       2.7
  JUN-16-2001 23:29:00      2.905     0.490     0.027       2.7
  JUN-16-2001 23:30:00      2.905     0.490     0.027       2.7
  JUN-16-2001 23:31:00      2.904     0.490     0.027       2.7
  JUN-16-2001 23:32:00      2.904     0.490     0.027       2.7
  JUN-16-2001 23:33:00      2.903     0.490     0.027       2.7
  JUN-16-2001 23:34:00      2.903     0.490     0.027       2.7
  JUN-16-2001 23:35:00      2.902     0.490     0.027       2.7
  JUN-16-2001 23:36:00      2.902     0.490     0.027       2.7
  JUN-16-2001 23:37:00      2.901     0.490     0.027       2.7
  JUN-16-2001 23:38:00      2.900     0.490     0.027       2.7
  JUN-16-2001 23:39:00      2.900     0.490     0.027       2.7
  JUN-16-2001 23:40:00      2.900     0.490     0.027       2.7
  JUN-16-2001 23:41:00      2.899     0.490     0.027       2.7
  JUN-16-2001 23:42:00      2.899     0.490     0.027       2.7
  JUN-16-2001 23:43:00      2.898     0.490     0.027       2.7
  JUN-16-2001 23:44:00      2.898     0.490     0.027       2.7
  JUN-16-2001 23:45:00      2.898     0.490     0.027       2.7
  JUN-16-2001 23:46:00      2.897     0.490     0.027       2.7
  JUN-16-2001 23:47:00      2.897     0.490     0.027       2.7
  JUN-16-2001 23:48:00      2.896     0.490     0.027       2.7
  JUN-16-2001 23:49:00      2.896     0.490     0.027       2.7
  JUN-16-2001 23:50:00      2.896     0.490     0.027       2.7
  JUN-16-2001 23:51:00      2.895     0.490     0.027       2.7
  JUN-16-2001 23:52:00      2.895     0.490     0.027       2.7
  JUN-16-2001 23:53:00      2.895     0.490     0.027       2.7
  JUN-16-2001 23:54:00      2.894     0.490     0.027       2.7
  JUN-16-2001 23:55:00      2.894     0.490     0.027       2.7
  JUN-16-2001 23:56:00      2.894     0.490     0.027       2.7
  JUN-16-2001 23:57:00      2.893     0.490     0.027       2.7
  JUN-16-2001 23:58:00      2.893     0.490     0.027       2.7
  JUN-16-2001 23:59:00      2.893     0.490     0.027       2.7
  JUN-17-2001 00:00:00      2.790     0.490     0.026       2.6
  

  Analysis begun on:  Mon Jul 20 15:53:48 2009
  Analysis ended on:  Mon Jul 20 15:54:16 2009
  Total elapsed time: 00:00:28